# generated using pymatgen
data_H3C8
_symmetry_space_group_name_H-M   'P 1'
_cell_length_a   10.00000000
_cell_length_b   21.36688000
_cell_length_c   9.84400684
_cell_angle_alpha   90.00000000
_cell_angle_beta   90.00000000
_cell_angle_gamma   90.00000000
_symmetry_Int_Tables_number   1
_chemical_formula_structural   H3C8
_chemical_formula_sum   'H12 C32'
_cell_volume   2103.35712908
_cell_formula_units_Z   4
loop_
 _symmetry_equiv_pos_site_id
 _symmetry_equiv_pos_as_xyz
  1  'x, y, z'
loop_
 _atom_site_type_symbol
 _atom_site_label
 _atom_site_symmetry_multiplicity
 _atom_site_fract_x
 _atom_site_fract_y
 _atom_site_fract_z
 _atom_site_occupancy
  C  C0  1  0.50000000  0.28388071  0.06250000  1
  C  C1  1  0.50000000  0.28388071  0.31250000  1
  C  C2  1  0.50000000  0.28388071  0.56250000  1
  C  C3  1  0.50000000  0.28388071  0.81250000  1
  C  C4  1  0.50000000  0.31712983  0.18750000  1
  C  C5  1  0.50000000  0.31712983  0.43750000  1
  C  C6  1  0.50000000  0.31712983  0.68750000  1
  C  C7  1  0.50000000  0.31712983  0.93750000  1
  C  C8  1  0.50000000  0.38362807  0.18750000  1
  C  C9  1  0.50000000  0.38362807  0.43750000  1
  C  C10  1  0.50000000  0.38362807  0.68750000  1
  C  C11  1  0.50000000  0.38362807  0.93750000  1
  C  C12  1  0.50000000  0.41687719  0.06250000  1
  C  C13  1  0.50000000  0.41687719  0.31250000  1
  C  C14  1  0.50000000  0.41687719  0.56250000  1
  C  C15  1  0.50000000  0.41687719  0.81250000  1
  C  C16  1  0.50000000  0.48337544  0.06250000  1
  C  C17  1  0.50000000  0.48337544  0.31250000  1
  C  C18  1  0.50000000  0.48337544  0.56250000  1
  C  C19  1  0.50000000  0.48337544  0.81250000  1
  C  C20  1  0.50000000  0.51662456  0.18750000  1
  C  C21  1  0.50000000  0.51662456  0.43750000  1
  C  C22  1  0.50000000  0.51662456  0.68750000  1
  C  C23  1  0.50000000  0.51662456  0.93750000  1
  C  C24  1  0.50000000  0.58312281  0.68750000  1
  C  C25  1  0.50000000  0.58312281  0.93750000  1
  C  C26  1  0.50000000  0.61637193  0.56250000  1
  C  C27  1  0.50000000  0.61637193  0.81250000  1
  C  C28  1  0.50000000  0.68287017  0.56250000  1
  C  C29  1  0.50000000  0.68287017  0.81250000  1
  C  C30  1  0.50000000  0.71611929  0.68750000  1
  C  C31  1  0.50000000  0.71611929  0.93750000  1
  H  H32  1  0.50000000  0.23286718  0.06250000  1
  H  H33  1  0.50000000  0.23286718  0.31250000  1
  H  H34  1  0.50000000  0.23286718  0.56250000  1
  H  H35  1  0.50000000  0.23286718  0.81250000  1
  H  H36  1  0.50000000  0.76713282  0.68750000  1
  H  H37  1  0.50000000  0.76713282  0.93750000  1
  H  H38  1  0.50000000  0.56763809  0.18750000  1
  H  H39  1  0.50000000  0.56763809  0.43750000  1
  H  H40  1  0.50000000  0.59086516  0.46660738  1
  H  H41  1  0.50000000  0.70837693  0.46660738  1
  H  H42  1  0.50000000  0.60862957  0.03339262  1
  H  H43  1  0.50000000  0.69061253  0.03339262  1
