# generated using pymatgen
data_H3C10
_symmetry_space_group_name_H-M   'P 1'
_cell_length_a   10.00000000
_cell_length_b   21.36688000
_cell_length_c   9.84400684
_cell_angle_alpha   90.00000000
_cell_angle_beta   90.00000000
_cell_angle_gamma   90.00000000
_symmetry_Int_Tables_number   1
_chemical_formula_structural   H3C10
_chemical_formula_sum   'H12 C40'
_cell_volume   2103.35712908
_cell_formula_units_Z   4
loop_
 _symmetry_equiv_pos_site_id
 _symmetry_equiv_pos_as_xyz
  1  'x, y, z'
loop_
 _atom_site_type_symbol
 _atom_site_label
 _atom_site_symmetry_multiplicity
 _atom_site_fract_x
 _atom_site_fract_y
 _atom_site_fract_z
 _atom_site_occupancy
  C  C0  1  0.50000000  0.76599298  0.56250000  1
  C  C1  1  0.50000000  0.76599298  0.81250000  1
  C  C2  1  0.50000000  0.23400702  0.56250000  1
  C  C3  1  0.50000000  0.23400702  0.81250000  1
  C  C4  1  0.50000000  0.26725615  0.68750000  1
  C  C5  1  0.50000000  0.26725615  0.93750000  1
  C  C6  1  0.50000000  0.33375439  0.18750000  1
  C  C7  1  0.50000000  0.33375439  0.43750000  1
  C  C8  1  0.50000000  0.33375439  0.68750000  1
  C  C9  1  0.50000000  0.33375439  0.93750000  1
  C  C10  1  0.50000000  0.36700351  0.06250000  1
  C  C11  1  0.50000000  0.36700351  0.31250000  1
  C  C12  1  0.50000000  0.36700351  0.56250000  1
  C  C13  1  0.50000000  0.36700351  0.81250000  1
  C  C14  1  0.50000000  0.43350176  0.06250000  1
  C  C15  1  0.50000000  0.43350176  0.31250000  1
  C  C16  1  0.50000000  0.43350176  0.56250000  1
  C  C17  1  0.50000000  0.43350176  0.81250000  1
  C  C18  1  0.50000000  0.46675088  0.18750000  1
  C  C19  1  0.50000000  0.46675088  0.43750000  1
  C  C20  1  0.50000000  0.46675088  0.68750000  1
  C  C21  1  0.50000000  0.46675088  0.93750000  1
  C  C22  1  0.50000000  0.53324912  0.18750000  1
  C  C23  1  0.50000000  0.53324912  0.43750000  1
  C  C24  1  0.50000000  0.53324912  0.68750000  1
  C  C25  1  0.50000000  0.53324912  0.93750000  1
  C  C26  1  0.50000000  0.56649824  0.06250000  1
  C  C27  1  0.50000000  0.56649824  0.31250000  1
  C  C28  1  0.50000000  0.56649824  0.56250000  1
  C  C29  1  0.50000000  0.56649824  0.81250000  1
  C  C30  1  0.50000000  0.63299649  0.06250000  1
  C  C31  1  0.50000000  0.63299649  0.31250000  1
  C  C32  1  0.50000000  0.63299649  0.56250000  1
  C  C33  1  0.50000000  0.63299649  0.81250000  1
  C  C34  1  0.50000000  0.66624561  0.18750000  1
  C  C35  1  0.50000000  0.66624561  0.43750000  1
  C  C36  1  0.50000000  0.66624561  0.68750000  1
  C  C37  1  0.50000000  0.66624561  0.93750000  1
  C  C38  1  0.50000000  0.73274385  0.68750000  1
  C  C39  1  0.50000000  0.73274385  0.93750000  1
  H  H40  1  0.50000000  0.81700650  0.56250000  1
  H  H41  1  0.50000000  0.81700650  0.81250000  1
  H  H42  1  0.50000000  0.18299350  0.56250000  1
  H  H43  1  0.50000000  0.18299350  0.81250000  1
  H  H44  1  0.50000000  0.74048621  0.46660738  1
  H  H45  1  0.50000000  0.25951379  0.46660738  1
  H  H46  1  0.50000000  0.28274086  0.18750000  1
  H  H47  1  0.50000000  0.28274086  0.43750000  1
  H  H48  1  0.50000000  0.71725914  0.18750000  1
  H  H49  1  0.50000000  0.71725914  0.43750000  1
  H  H50  1  0.50000000  0.24174938  0.03339262  1
  H  H51  1  0.50000000  0.75825062  0.03339262  1
