# generated using pymatgen
data_H3C10
_symmetry_space_group_name_H-M   'P 1'
_cell_length_a   10.00000000
_cell_length_b   29.89204000
_cell_length_c   9.84400684
_cell_angle_alpha   90.00000000
_cell_angle_beta   90.00000000
_cell_angle_gamma   90.00000000
_symmetry_Int_Tables_number   1
_chemical_formula_structural   H3C10
_chemical_formula_sum   'H18 C60'
_cell_volume   2942.57446275
_cell_formula_units_Z   6
loop_
 _symmetry_equiv_pos_site_id
 _symmetry_equiv_pos_as_xyz
  1  'x, y, z'
loop_
 _atom_site_type_symbol
 _atom_site_label
 _atom_site_symmetry_multiplicity
 _atom_site_fract_x
 _atom_site_fract_y
 _atom_site_fract_z
 _atom_site_occupancy
  C  C0  1  0.50000000  0.83273139  0.56250000  1
  C  C1  1  0.50000000  0.83273139  0.81250000  1
  C  C2  1  0.50000000  0.16726861  0.06250000  1
  C  C3  1  0.50000000  0.16726861  0.31250000  1
  C  C4  1  0.50000000  0.16726861  0.56250000  1
  C  C5  1  0.50000000  0.16726861  0.81250000  1
  C  C6  1  0.50000000  0.19103514  0.18750000  1
  C  C7  1  0.50000000  0.19103514  0.43750000  1
  C  C8  1  0.50000000  0.19103514  0.68750000  1
  C  C9  1  0.50000000  0.19103514  0.93750000  1
  C  C10  1  0.50000000  0.23856819  0.18750000  1
  C  C11  1  0.50000000  0.23856819  0.43750000  1
  C  C12  1  0.50000000  0.23856819  0.68750000  1
  C  C13  1  0.50000000  0.23856819  0.93750000  1
  C  C14  1  0.50000000  0.26233472  0.06250000  1
  C  C15  1  0.50000000  0.26233472  0.31250000  1
  C  C16  1  0.50000000  0.26233472  0.56250000  1
  C  C17  1  0.50000000  0.26233472  0.81250000  1
  C  C18  1  0.50000000  0.30986778  0.06250000  1
  C  C19  1  0.50000000  0.30986778  0.31250000  1
  C  C20  1  0.50000000  0.30986778  0.56250000  1
  C  C21  1  0.50000000  0.30986778  0.81250000  1
  C  C22  1  0.50000000  0.33363431  0.18750000  1
  C  C23  1  0.50000000  0.33363431  0.43750000  1
  C  C24  1  0.50000000  0.33363431  0.68750000  1
  C  C25  1  0.50000000  0.33363431  0.93750000  1
  C  C26  1  0.50000000  0.38116736  0.18750000  1
  C  C27  1  0.50000000  0.38116736  0.43750000  1
  C  C28  1  0.50000000  0.38116736  0.68750000  1
  C  C29  1  0.50000000  0.38116736  0.93750000  1
  C  C30  1  0.50000000  0.40493389  0.06250000  1
  C  C31  1  0.50000000  0.40493389  0.31250000  1
  C  C32  1  0.50000000  0.40493389  0.56250000  1
  C  C33  1  0.50000000  0.40493389  0.81250000  1
  C  C34  1  0.50000000  0.45246694  0.06250000  1
  C  C35  1  0.50000000  0.45246694  0.31250000  1
  C  C36  1  0.50000000  0.45246694  0.56250000  1
  C  C37  1  0.50000000  0.45246694  0.81250000  1
  C  C38  1  0.50000000  0.47623347  0.18750000  1
  C  C39  1  0.50000000  0.47623347  0.43750000  1
  C  C40  1  0.50000000  0.47623347  0.68750000  1
  C  C41  1  0.50000000  0.47623347  0.93750000  1
  C  C42  1  0.50000000  0.52376653  0.68750000  1
  C  C43  1  0.50000000  0.52376653  0.93750000  1
  C  C44  1  0.50000000  0.54753306  0.56250000  1
  C  C45  1  0.50000000  0.54753306  0.81250000  1
  C  C46  1  0.50000000  0.59506611  0.56250000  1
  C  C47  1  0.50000000  0.59506611  0.81250000  1
  C  C48  1  0.50000000  0.61883264  0.68750000  1
  C  C49  1  0.50000000  0.61883264  0.93750000  1
  C  C50  1  0.50000000  0.66636569  0.68750000  1
  C  C51  1  0.50000000  0.66636569  0.93750000  1
  C  C52  1  0.50000000  0.69013222  0.56250000  1
  C  C53  1  0.50000000  0.69013222  0.81250000  1
  C  C54  1  0.50000000  0.73766528  0.56250000  1
  C  C55  1  0.50000000  0.73766528  0.81250000  1
  C  C56  1  0.50000000  0.76143181  0.68750000  1
  C  C57  1  0.50000000  0.76143181  0.93750000  1
  C  C58  1  0.50000000  0.80896486  0.68750000  1
  C  C59  1  0.50000000  0.80896486  0.93750000  1
  H  H60  1  0.50000000  0.86919594  0.56250000  1
  H  H61  1  0.50000000  0.86919594  0.81250000  1
  H  H62  1  0.50000000  0.13080406  0.06250000  1
  H  H63  1  0.50000000  0.13080406  0.31250000  1
  H  H64  1  0.50000000  0.13080406  0.56250000  1
  H  H65  1  0.50000000  0.13080406  0.81250000  1
  H  H66  1  0.50000000  0.81449911  0.46660738  1
  H  H67  1  0.50000000  0.51269803  0.18750000  1
  H  H68  1  0.50000000  0.51269803  0.43750000  1
  H  H69  1  0.50000000  0.52930078  0.46660738  1
  H  H70  1  0.50000000  0.61329839  0.46660738  1
  H  H71  1  0.50000000  0.67189995  0.46660738  1
  H  H72  1  0.50000000  0.75589756  0.46660738  1
  H  H73  1  0.50000000  0.54199881  0.03339262  1
  H  H74  1  0.50000000  0.60060036  0.03339262  1
  H  H75  1  0.50000000  0.68459797  0.03339262  1
  H  H76  1  0.50000000  0.74319953  0.03339262  1
  H  H77  1  0.50000000  0.82719714  0.03339262  1
