# generated using pymatgen
data_HC2
_symmetry_space_group_name_H-M   'P 1'
_cell_length_a   10.00000000
_cell_length_b   21.36688000
_cell_length_c   9.85898764
_cell_angle_alpha   90.00000000
_cell_angle_beta   90.00000000
_cell_angle_gamma   90.00000000
_symmetry_Int_Tables_number   1
_chemical_formula_structural   HC2
_chemical_formula_sum   'H14 C28'
_cell_volume   2106.55805837
_cell_formula_units_Z   14
loop_
 _symmetry_equiv_pos_site_id
 _symmetry_equiv_pos_as_xyz
  1  'x, y, z'
loop_
 _atom_site_type_symbol
 _atom_site_label
 _atom_site_symmetry_multiplicity
 _atom_site_fract_x
 _atom_site_fract_y
 _atom_site_fract_z
 _atom_site_occupancy
  C  C0  1  0.50000000  0.28388071  0.06127532  1
  C  C1  1  0.50000000  0.28388071  0.31089544  1
  C  C2  1  0.50000000  0.28213705  0.56429450  1
  C  C3  1  0.50000000  0.28213705  0.81391462  1
  C  C4  1  0.50000000  0.31712983  0.18608538  1
  C  C5  1  0.50000000  0.31538617  0.43948444  1
  C  C6  1  0.50000000  0.31538617  0.68910456  1
  C  C7  1  0.50000000  0.31538617  0.93872468  1
  C  C8  1  0.50000000  0.38362807  0.18608538  1
  C  C9  1  0.50000000  0.38188442  0.43948444  1
  C  C10  1  0.50000000  0.38188442  0.68910456  1
  C  C11  1  0.50000000  0.38188442  0.93872468  1
  C  C12  1  0.50000000  0.41687719  0.06127532  1
  C  C13  1  0.50000000  0.41687719  0.31089544  1
  C  C14  1  0.50000000  0.41513354  0.56429450  1
  C  C15  1  0.50000000  0.41513354  0.81391462  1
  C  C16  1  0.50000000  0.48163178  0.56429450  1
  C  C17  1  0.50000000  0.48163178  0.81391462  1
  C  C18  1  0.50000000  0.51488091  0.68910456  1
  C  C19  1  0.50000000  0.51488091  0.93872468  1
  C  C20  1  0.50000000  0.58137915  0.68910456  1
  C  C21  1  0.50000000  0.58137915  0.93872468  1
  C  C22  1  0.50000000  0.61462827  0.56429450  1
  C  C23  1  0.50000000  0.61462827  0.81391462  1
  C  C24  1  0.50000000  0.68112652  0.56429450  1
  C  C25  1  0.50000000  0.68112652  0.81391462  1
  C  C26  1  0.50000000  0.71437564  0.68910456  1
  C  C27  1  0.50000000  0.71437564  0.93872468  1
  H  H28  1  0.50000000  0.23286718  0.06127532  1
  H  H29  1  0.50000000  0.23286718  0.31089544  1
  H  H30  1  0.50000000  0.23112352  0.56429450  1
  H  H31  1  0.50000000  0.23112352  0.81391462  1
  H  H32  1  0.50000000  0.76538917  0.68910456  1
  H  H33  1  0.50000000  0.76538917  0.93872468  1
  H  H34  1  0.50000000  0.46789072  0.06127532  1
  H  H35  1  0.50000000  0.46789072  0.31089544  1
  H  H36  1  0.50000000  0.50713855  0.46854759  1
  H  H37  1  0.50000000  0.58912151  0.46854759  1
  H  H38  1  0.50000000  0.70663328  0.46854759  1
  H  H39  1  0.50000000  0.48937414  0.03447160  1
  H  H40  1  0.50000000  0.60688591  0.03447160  1
  H  H41  1  0.50000000  0.68886887  0.03447160  1
