# generated using pymatgen
data_H7C22
_symmetry_space_group_name_H-M   'P 1'
_cell_length_a   10.00000000
_cell_length_b   25.62946000
_cell_length_c   9.84400684
_cell_angle_alpha   90.00000000
_cell_angle_beta   90.00000000
_cell_angle_gamma   90.00000000
_symmetry_Int_Tables_number   1
_chemical_formula_structural   H7C22
_chemical_formula_sum   'H14 C44'
_cell_volume   2522.96579591
_cell_formula_units_Z   2
loop_
 _symmetry_equiv_pos_site_id
 _symmetry_equiv_pos_as_xyz
  1  'x, y, z'
loop_
 _atom_site_type_symbol
 _atom_site_label
 _atom_site_symmetry_multiplicity
 _atom_site_fract_x
 _atom_site_fract_y
 _atom_site_fract_z
 _atom_site_occupancy
  C  C0  1  0.50000000  0.23666691  0.06250000  1
  C  C1  1  0.50000000  0.23666691  0.31250000  1
  C  C2  1  0.50000000  0.23666691  0.56250000  1
  C  C3  1  0.50000000  0.23666691  0.81250000  1
  C  C4  1  0.50000000  0.26438618  0.18750000  1
  C  C5  1  0.50000000  0.26438618  0.43750000  1
  C  C6  1  0.50000000  0.26438618  0.68750000  1
  C  C7  1  0.50000000  0.26438618  0.93750000  1
  C  C8  1  0.50000000  0.31982473  0.18750000  1
  C  C9  1  0.50000000  0.31982473  0.43750000  1
  C  C10  1  0.50000000  0.31982473  0.68750000  1
  C  C11  1  0.50000000  0.31982473  0.93750000  1
  C  C12  1  0.50000000  0.34754400  0.06250000  1
  C  C13  1  0.50000000  0.34754400  0.31250000  1
  C  C14  1  0.50000000  0.34754400  0.56250000  1
  C  C15  1  0.50000000  0.34754400  0.81250000  1
  C  C16  1  0.50000000  0.40298254  0.06250000  1
  C  C17  1  0.50000000  0.40298254  0.31250000  1
  C  C18  1  0.50000000  0.40298254  0.56250000  1
  C  C19  1  0.50000000  0.40298254  0.81250000  1
  C  C20  1  0.50000000  0.43070182  0.18750000  1
  C  C21  1  0.50000000  0.43070182  0.43750000  1
  C  C22  1  0.50000000  0.43070182  0.68750000  1
  C  C23  1  0.50000000  0.43070182  0.93750000  1
  C  C24  1  0.50000000  0.48614036  0.18750000  1
  C  C25  1  0.50000000  0.48614036  0.43750000  1
  C  C26  1  0.50000000  0.48614036  0.68750000  1
  C  C27  1  0.50000000  0.48614036  0.93750000  1
  C  C28  1  0.50000000  0.51385964  0.06250000  1
  C  C29  1  0.50000000  0.51385964  0.31250000  1
  C  C30  1  0.50000000  0.51385964  0.56250000  1
  C  C31  1  0.50000000  0.51385964  0.81250000  1
  C  C32  1  0.50000000  0.56929818  0.56250000  1
  C  C33  1  0.50000000  0.56929818  0.81250000  1
  C  C34  1  0.50000000  0.59701746  0.68750000  1
  C  C35  1  0.50000000  0.59701746  0.93750000  1
  C  C36  1  0.50000000  0.65245600  0.68750000  1
  C  C37  1  0.50000000  0.65245600  0.93750000  1
  C  C38  1  0.50000000  0.68017527  0.56250000  1
  C  C39  1  0.50000000  0.68017527  0.81250000  1
  C  C40  1  0.50000000  0.73561382  0.56250000  1
  C  C41  1  0.50000000  0.73561382  0.81250000  1
  C  C42  1  0.50000000  0.76333309  0.68750000  1
  C  C43  1  0.50000000  0.76333309  0.93750000  1
  H  H44  1  0.50000000  0.19413773  0.06250000  1
  H  H45  1  0.50000000  0.19413773  0.31250000  1
  H  H46  1  0.50000000  0.19413773  0.56250000  1
  H  H47  1  0.50000000  0.19413773  0.81250000  1
  H  H48  1  0.50000000  0.80586227  0.68750000  1
  H  H49  1  0.50000000  0.80586227  0.93750000  1
  H  H50  1  0.50000000  0.55638882  0.06250000  1
  H  H51  1  0.50000000  0.55638882  0.31250000  1
  H  H52  1  0.50000000  0.59056277  0.46660738  1
  H  H53  1  0.50000000  0.65891068  0.46660738  1
  H  H54  1  0.50000000  0.75687841  0.46660738  1
  H  H55  1  0.50000000  0.57575287  0.03339262  1
  H  H56  1  0.50000000  0.67372059  0.03339262  1
  H  H57  1  0.50000000  0.74206850  0.03339262  1
