# generated using pymatgen
data_H5C12
_symmetry_space_group_name_H-M   'P 1'
_cell_length_a   10.00000000
_cell_length_b   29.89204000
_cell_length_c   9.84400684
_cell_angle_alpha   90.00000000
_cell_angle_beta   90.00000000
_cell_angle_gamma   90.00000000
_symmetry_Int_Tables_number   1
_chemical_formula_structural   H5C12
_chemical_formula_sum   'H20 C48'
_cell_volume   2942.57446275
_cell_formula_units_Z   4
loop_
 _symmetry_equiv_pos_site_id
 _symmetry_equiv_pos_as_xyz
  1  'x, y, z'
loop_
 _atom_site_type_symbol
 _atom_site_label
 _atom_site_symmetry_multiplicity
 _atom_site_fract_x
 _atom_site_fract_y
 _atom_site_fract_z
 _atom_site_occupancy
  C  C0  1  0.50000000  0.20291840  0.06250000  1
  C  C1  1  0.50000000  0.20291840  0.31250000  1
  C  C2  1  0.50000000  0.20291840  0.56250000  1
  C  C3  1  0.50000000  0.20291840  0.81250000  1
  C  C4  1  0.50000000  0.22668493  0.18750000  1
  C  C5  1  0.50000000  0.22668493  0.43750000  1
  C  C6  1  0.50000000  0.22668493  0.68750000  1
  C  C7  1  0.50000000  0.22668493  0.93750000  1
  C  C8  1  0.50000000  0.27421799  0.18750000  1
  C  C9  1  0.50000000  0.27421799  0.43750000  1
  C  C10  1  0.50000000  0.27421799  0.68750000  1
  C  C11  1  0.50000000  0.27421799  0.93750000  1
  C  C12  1  0.50000000  0.29798451  0.06250000  1
  C  C13  1  0.50000000  0.29798451  0.31250000  1
  C  C14  1  0.50000000  0.29798451  0.56250000  1
  C  C15  1  0.50000000  0.29798451  0.81250000  1
  C  C16  1  0.50000000  0.34551757  0.06250000  1
  C  C17  1  0.50000000  0.34551757  0.31250000  1
  C  C18  1  0.50000000  0.34551757  0.56250000  1
  C  C19  1  0.50000000  0.34551757  0.81250000  1
  C  C20  1  0.50000000  0.36928410  0.18750000  1
  C  C21  1  0.50000000  0.36928410  0.43750000  1
  C  C22  1  0.50000000  0.36928410  0.68750000  1
  C  C23  1  0.50000000  0.36928410  0.93750000  1
  C  C24  1  0.50000000  0.41681715  0.68750000  1
  C  C25  1  0.50000000  0.41681715  0.93750000  1
  C  C26  1  0.50000000  0.44058368  0.56250000  1
  C  C27  1  0.50000000  0.44058368  0.81250000  1
  C  C28  1  0.50000000  0.48811674  0.56250000  1
  C  C29  1  0.50000000  0.48811674  0.81250000  1
  C  C30  1  0.50000000  0.51188326  0.68750000  1
  C  C31  1  0.50000000  0.51188326  0.93750000  1
  C  C32  1  0.50000000  0.55941632  0.68750000  1
  C  C33  1  0.50000000  0.55941632  0.93750000  1
  C  C34  1  0.50000000  0.58318285  0.56250000  1
  C  C35  1  0.50000000  0.58318285  0.81250000  1
  C  C36  1  0.50000000  0.63071590  0.56250000  1
  C  C37  1  0.50000000  0.63071590  0.81250000  1
  C  C38  1  0.50000000  0.65448243  0.68750000  1
  C  C39  1  0.50000000  0.65448243  0.93750000  1
  C  C40  1  0.50000000  0.70201549  0.68750000  1
  C  C41  1  0.50000000  0.70201549  0.93750000  1
  C  C42  1  0.50000000  0.72578201  0.56250000  1
  C  C43  1  0.50000000  0.72578201  0.81250000  1
  C  C44  1  0.50000000  0.77331507  0.56250000  1
  C  C45  1  0.50000000  0.77331507  0.81250000  1
  C  C46  1  0.50000000  0.79708160  0.68750000  1
  C  C47  1  0.50000000  0.79708160  0.93750000  1
  H  H48  1  0.50000000  0.16645385  0.06250000  1
  H  H49  1  0.50000000  0.16645385  0.31250000  1
  H  H50  1  0.50000000  0.16645385  0.56250000  1
  H  H51  1  0.50000000  0.16645385  0.81250000  1
  H  H52  1  0.50000000  0.83354615  0.68750000  1
  H  H53  1  0.50000000  0.83354615  0.93750000  1
  H  H54  1  0.50000000  0.40574865  0.18750000  1
  H  H55  1  0.50000000  0.40574865  0.43750000  1
  H  H56  1  0.50000000  0.42235140  0.46660738  1
  H  H57  1  0.50000000  0.50634901  0.46660738  1
  H  H58  1  0.50000000  0.56495057  0.46660738  1
  H  H59  1  0.50000000  0.64894818  0.46660738  1
  H  H60  1  0.50000000  0.70754974  0.46660738  1
  H  H61  1  0.50000000  0.79154735  0.46660738  1
  H  H62  1  0.50000000  0.43504943  0.03339262  1
  H  H63  1  0.50000000  0.49365099  0.03339262  1
  H  H64  1  0.50000000  0.57764860  0.03339262  1
  H  H65  1  0.50000000  0.63625015  0.03339262  1
  H  H66  1  0.50000000  0.72024776  0.03339262  1
  H  H67  1  0.50000000  0.77884932  0.03339262  1
