# generated using pymatgen
data_HC2
_symmetry_space_group_name_H-M   'P 1'
_cell_length_a   10.00000000
_cell_length_b   17.10430000
_cell_length_c   9.84400684
_cell_angle_alpha   90.00000000
_cell_angle_beta   90.00000000
_cell_angle_gamma   90.00000000
_symmetry_Int_Tables_number   1
_chemical_formula_structural   HC2
_chemical_formula_sum   'H12 C24'
_cell_volume   1683.74846224
_cell_formula_units_Z   12
loop_
 _symmetry_equiv_pos_site_id
 _symmetry_equiv_pos_as_xyz
  1  'x, y, z'
loop_
 _atom_site_type_symbol
 _atom_site_label
 _atom_site_symmetry_multiplicity
 _atom_site_fract_x
 _atom_site_fract_y
 _atom_site_fract_z
 _atom_site_occupancy
  C  C0  1  0.50000000  0.70767585  0.56250000  1
  C  C1  1  0.50000000  0.70767585  0.81250000  1
  C  C2  1  0.50000000  0.29232415  0.56250000  1
  C  C3  1  0.50000000  0.29232415  0.81250000  1
  C  C4  1  0.50000000  0.33385932  0.68750000  1
  C  C5  1  0.50000000  0.33385932  0.93750000  1
  C  C6  1  0.50000000  0.41692966  0.18750000  1
  C  C7  1  0.50000000  0.41692966  0.43750000  1
  C  C8  1  0.50000000  0.41692966  0.68750000  1
  C  C9  1  0.50000000  0.41692966  0.93750000  1
  C  C10  1  0.50000000  0.45846483  0.06250000  1
  C  C11  1  0.50000000  0.45846483  0.31250000  1
  C  C12  1  0.50000000  0.45846483  0.56250000  1
  C  C13  1  0.50000000  0.45846483  0.81250000  1
  C  C14  1  0.50000000  0.54153517  0.06250000  1
  C  C15  1  0.50000000  0.54153517  0.31250000  1
  C  C16  1  0.50000000  0.54153517  0.56250000  1
  C  C17  1  0.50000000  0.54153517  0.81250000  1
  C  C18  1  0.50000000  0.58307034  0.18750000  1
  C  C19  1  0.50000000  0.58307034  0.43750000  1
  C  C20  1  0.50000000  0.58307034  0.68750000  1
  C  C21  1  0.50000000  0.58307034  0.93750000  1
  C  C22  1  0.50000000  0.66614068  0.68750000  1
  C  C23  1  0.50000000  0.66614068  0.93750000  1
  H  H24  1  0.50000000  0.77140251  0.56250000  1
  H  H25  1  0.50000000  0.77140251  0.81250000  1
  H  H26  1  0.50000000  0.22859749  0.56250000  1
  H  H27  1  0.50000000  0.22859749  0.81250000  1
  H  H28  1  0.50000000  0.67581252  0.46660738  1
  H  H29  1  0.50000000  0.32418748  0.46660738  1
  H  H30  1  0.50000000  0.35320300  0.18750000  1
  H  H31  1  0.50000000  0.35320300  0.43750000  1
  H  H32  1  0.50000000  0.64679700  0.18750000  1
  H  H33  1  0.50000000  0.64679700  0.43750000  1
  H  H34  1  0.50000000  0.30199599  0.03339262  1
  H  H35  1  0.50000000  0.69800401  0.03339262  1
