# generated using pymatgen
data_H3C14
_symmetry_space_group_name_H-M   'P 1'
_cell_length_a   10.00000000
_cell_length_b   25.62946000
_cell_length_c   9.84400684
_cell_angle_alpha   90.00000000
_cell_angle_beta   90.00000000
_cell_angle_gamma   90.00000000
_symmetry_Int_Tables_number   1
_chemical_formula_structural   H3C14
_chemical_formula_sum   'H12 C56'
_cell_volume   2522.96579591
_cell_formula_units_Z   4
loop_
 _symmetry_equiv_pos_site_id
 _symmetry_equiv_pos_as_xyz
  1  'x, y, z'
loop_
 _atom_site_type_symbol
 _atom_site_label
 _atom_site_symmetry_multiplicity
 _atom_site_fract_x
 _atom_site_fract_y
 _atom_site_fract_z
 _atom_site_occupancy
  C  C0  1  0.50000000  0.80491200  0.56250000  1
  C  C1  1  0.50000000  0.80491200  0.81250000  1
  C  C2  1  0.50000000  0.19508800  0.06250000  1
  C  C3  1  0.50000000  0.19508800  0.31250000  1
  C  C4  1  0.50000000  0.19508800  0.56250000  1
  C  C5  1  0.50000000  0.19508800  0.81250000  1
  C  C6  1  0.50000000  0.22280727  0.18750000  1
  C  C7  1  0.50000000  0.22280727  0.43750000  1
  C  C8  1  0.50000000  0.22280727  0.68750000  1
  C  C9  1  0.50000000  0.22280727  0.93750000  1
  C  C10  1  0.50000000  0.27824582  0.18750000  1
  C  C11  1  0.50000000  0.27824582  0.43750000  1
  C  C12  1  0.50000000  0.27824582  0.68750000  1
  C  C13  1  0.50000000  0.27824582  0.93750000  1
  C  C14  1  0.50000000  0.30596509  0.06250000  1
  C  C15  1  0.50000000  0.30596509  0.31250000  1
  C  C16  1  0.50000000  0.30596509  0.56250000  1
  C  C17  1  0.50000000  0.30596509  0.81250000  1
  C  C18  1  0.50000000  0.36140363  0.06250000  1
  C  C19  1  0.50000000  0.36140363  0.31250000  1
  C  C20  1  0.50000000  0.36140363  0.56250000  1
  C  C21  1  0.50000000  0.36140363  0.81250000  1
  C  C22  1  0.50000000  0.38912291  0.18750000  1
  C  C23  1  0.50000000  0.38912291  0.43750000  1
  C  C24  1  0.50000000  0.38912291  0.68750000  1
  C  C25  1  0.50000000  0.38912291  0.93750000  1
  C  C26  1  0.50000000  0.44456145  0.18750000  1
  C  C27  1  0.50000000  0.44456145  0.43750000  1
  C  C28  1  0.50000000  0.44456145  0.68750000  1
  C  C29  1  0.50000000  0.44456145  0.93750000  1
  C  C30  1  0.50000000  0.47228073  0.06250000  1
  C  C31  1  0.50000000  0.47228073  0.31250000  1
  C  C32  1  0.50000000  0.47228073  0.56250000  1
  C  C33  1  0.50000000  0.47228073  0.81250000  1
  C  C34  1  0.50000000  0.52771927  0.06250000  1
  C  C35  1  0.50000000  0.52771927  0.31250000  1
  C  C36  1  0.50000000  0.52771927  0.56250000  1
  C  C37  1  0.50000000  0.52771927  0.81250000  1
  C  C38  1  0.50000000  0.55543855  0.18750000  1
  C  C39  1  0.50000000  0.55543855  0.43750000  1
  C  C40  1  0.50000000  0.55543855  0.68750000  1
  C  C41  1  0.50000000  0.55543855  0.93750000  1
  C  C42  1  0.50000000  0.61087709  0.18750000  1
  C  C43  1  0.50000000  0.61087709  0.43750000  1
  C  C44  1  0.50000000  0.61087709  0.68750000  1
  C  C45  1  0.50000000  0.61087709  0.93750000  1
  C  C46  1  0.50000000  0.63859637  0.06250000  1
  C  C47  1  0.50000000  0.63859637  0.31250000  1
  C  C48  1  0.50000000  0.63859637  0.56250000  1
  C  C49  1  0.50000000  0.63859637  0.81250000  1
  C  C50  1  0.50000000  0.69403491  0.56250000  1
  C  C51  1  0.50000000  0.69403491  0.81250000  1
  C  C52  1  0.50000000  0.72175418  0.68750000  1
  C  C53  1  0.50000000  0.72175418  0.93750000  1
  C  C54  1  0.50000000  0.77719273  0.68750000  1
  C  C55  1  0.50000000  0.77719273  0.93750000  1
  H  H56  1  0.50000000  0.84744118  0.56250000  1
  H  H57  1  0.50000000  0.84744118  0.81250000  1
  H  H58  1  0.50000000  0.15255882  0.06250000  1
  H  H59  1  0.50000000  0.15255882  0.31250000  1
  H  H60  1  0.50000000  0.15255882  0.56250000  1
  H  H61  1  0.50000000  0.15255882  0.81250000  1
  H  H62  1  0.50000000  0.78364741  0.46660738  1
  H  H63  1  0.50000000  0.68112555  0.06250000  1
  H  H64  1  0.50000000  0.68112555  0.31250000  1
  H  H65  1  0.50000000  0.71529950  0.46660738  1
  H  H66  1  0.50000000  0.70048959  0.03339262  1
  H  H67  1  0.50000000  0.79845732  0.03339262  1
