# generated using pymatgen
data_H3C16
_symmetry_space_group_name_H-M   'P 1'
_cell_length_a   10.00000000
_cell_length_b   29.89204000
_cell_length_c   9.84400684
_cell_angle_alpha   90.00000000
_cell_angle_beta   90.00000000
_cell_angle_gamma   90.00000000
_symmetry_Int_Tables_number   1
_chemical_formula_structural   H3C16
_chemical_formula_sum   'H12 C64'
_cell_volume   2942.57446275
_cell_formula_units_Z   4
loop_
 _symmetry_equiv_pos_site_id
 _symmetry_equiv_pos_as_xyz
  1  'x, y, z'
loop_
 _atom_site_type_symbol
 _atom_site_label
 _atom_site_symmetry_multiplicity
 _atom_site_fract_x
 _atom_site_fract_y
 _atom_site_fract_z
 _atom_site_occupancy
  C  C0  1  0.50000000  0.20291840  0.56250000  1
  C  C1  1  0.50000000  0.20291840  0.81250000  1
  C  C2  1  0.50000000  0.22668493  0.68750000  1
  C  C3  1  0.50000000  0.22668493  0.93750000  1
  C  C4  1  0.50000000  0.27421799  0.68750000  1
  C  C5  1  0.50000000  0.27421799  0.93750000  1
  C  C6  1  0.50000000  0.29798451  0.56250000  1
  C  C7  1  0.50000000  0.29798451  0.81250000  1
  C  C8  1  0.50000000  0.34551757  0.06250000  1
  C  C9  1  0.50000000  0.34551757  0.31250000  1
  C  C10  1  0.50000000  0.34551757  0.56250000  1
  C  C11  1  0.50000000  0.34551757  0.81250000  1
  C  C12  1  0.50000000  0.36928410  0.18750000  1
  C  C13  1  0.50000000  0.36928410  0.43750000  1
  C  C14  1  0.50000000  0.36928410  0.68750000  1
  C  C15  1  0.50000000  0.36928410  0.93750000  1
  C  C16  1  0.50000000  0.41681715  0.18750000  1
  C  C17  1  0.50000000  0.41681715  0.43750000  1
  C  C18  1  0.50000000  0.41681715  0.68750000  1
  C  C19  1  0.50000000  0.41681715  0.93750000  1
  C  C20  1  0.50000000  0.44058368  0.06250000  1
  C  C21  1  0.50000000  0.44058368  0.31250000  1
  C  C22  1  0.50000000  0.44058368  0.56250000  1
  C  C23  1  0.50000000  0.44058368  0.81250000  1
  C  C24  1  0.50000000  0.48811674  0.06250000  1
  C  C25  1  0.50000000  0.48811674  0.31250000  1
  C  C26  1  0.50000000  0.48811674  0.56250000  1
  C  C27  1  0.50000000  0.48811674  0.81250000  1
  C  C28  1  0.50000000  0.51188326  0.18750000  1
  C  C29  1  0.50000000  0.51188326  0.43750000  1
  C  C30  1  0.50000000  0.51188326  0.68750000  1
  C  C31  1  0.50000000  0.51188326  0.93750000  1
  C  C32  1  0.50000000  0.55941632  0.18750000  1
  C  C33  1  0.50000000  0.55941632  0.43750000  1
  C  C34  1  0.50000000  0.55941632  0.68750000  1
  C  C35  1  0.50000000  0.55941632  0.93750000  1
  C  C36  1  0.50000000  0.58318285  0.06250000  1
  C  C37  1  0.50000000  0.58318285  0.31250000  1
  C  C38  1  0.50000000  0.58318285  0.56250000  1
  C  C39  1  0.50000000  0.58318285  0.81250000  1
  C  C40  1  0.50000000  0.63071590  0.06250000  1
  C  C41  1  0.50000000  0.63071590  0.31250000  1
  C  C42  1  0.50000000  0.63071590  0.56250000  1
  C  C43  1  0.50000000  0.63071590  0.81250000  1
  C  C44  1  0.50000000  0.65448243  0.18750000  1
  C  C45  1  0.50000000  0.65448243  0.43750000  1
  C  C46  1  0.50000000  0.65448243  0.68750000  1
  C  C47  1  0.50000000  0.65448243  0.93750000  1
  C  C48  1  0.50000000  0.70201549  0.18750000  1
  C  C49  1  0.50000000  0.70201549  0.43750000  1
  C  C50  1  0.50000000  0.70201549  0.68750000  1
  C  C51  1  0.50000000  0.70201549  0.93750000  1
  C  C52  1  0.50000000  0.72578201  0.06250000  1
  C  C53  1  0.50000000  0.72578201  0.31250000  1
  C  C54  1  0.50000000  0.72578201  0.56250000  1
  C  C55  1  0.50000000  0.72578201  0.81250000  1
  C  C56  1  0.50000000  0.77331507  0.06250000  1
  C  C57  1  0.50000000  0.77331507  0.31250000  1
  C  C58  1  0.50000000  0.77331507  0.56250000  1
  C  C59  1  0.50000000  0.77331507  0.81250000  1
  C  C60  1  0.50000000  0.79708160  0.18750000  1
  C  C61  1  0.50000000  0.79708160  0.43750000  1
  C  C62  1  0.50000000  0.79708160  0.68750000  1
  C  C63  1  0.50000000  0.79708160  0.93750000  1
  H  H64  1  0.50000000  0.16645385  0.56250000  1
  H  H65  1  0.50000000  0.16645385  0.81250000  1
  H  H66  1  0.50000000  0.83354615  0.18750000  1
  H  H67  1  0.50000000  0.83354615  0.43750000  1
  H  H68  1  0.50000000  0.83354615  0.68750000  1
  H  H69  1  0.50000000  0.83354615  0.93750000  1
  H  H70  1  0.50000000  0.22115068  0.46660738  1
  H  H71  1  0.50000000  0.27975224  0.46660738  1
  H  H72  1  0.50000000  0.30905301  0.06250000  1
  H  H73  1  0.50000000  0.30905301  0.31250000  1
  H  H74  1  0.50000000  0.20845265  0.03339262  1
  H  H75  1  0.50000000  0.29245026  0.03339262  1
