# generated using pymatgen
data_H5C21
_symmetry_space_group_name_H-M   'P 1'
_cell_length_a   10.00000000
_cell_length_b   29.89204000
_cell_length_c   14.76601026
_cell_angle_alpha   90.00000000
_cell_angle_beta   90.00000000
_cell_angle_gamma   90.00000000
_symmetry_Int_Tables_number   1
_chemical_formula_structural   H5C21
_chemical_formula_sum   'H20 C84'
_cell_volume   4413.86169412
_cell_formula_units_Z   4
loop_
 _symmetry_equiv_pos_site_id
 _symmetry_equiv_pos_as_xyz
  1  'x, y, z'
loop_
 _atom_site_type_symbol
 _atom_site_label
 _atom_site_symmetry_multiplicity
 _atom_site_fract_x
 _atom_site_fract_y
 _atom_site_fract_z
 _atom_site_occupancy
  C  C0  1  0.50000000  0.20291840  0.54166667  1
  C  C1  1  0.50000000  0.20291840  0.70833333  1
  C  C2  1  0.50000000  0.20291840  0.87500000  1
  C  C3  1  0.50000000  0.22668493  0.62500000  1
  C  C4  1  0.50000000  0.22668493  0.79166667  1
  C  C5  1  0.50000000  0.22668493  0.95833333  1
  C  C6  1  0.50000000  0.27421799  0.62500000  1
  C  C7  1  0.50000000  0.27421799  0.79166667  1
  C  C8  1  0.50000000  0.27421799  0.95833333  1
  C  C9  1  0.50000000  0.29798451  0.54166667  1
  C  C10  1  0.50000000  0.29798451  0.70833333  1
  C  C11  1  0.50000000  0.29798451  0.87500000  1
  C  C12  1  0.50000000  0.34551757  0.54166667  1
  C  C13  1  0.50000000  0.34551757  0.70833333  1
  C  C14  1  0.50000000  0.34551757  0.87500000  1
  C  C15  1  0.50000000  0.36928410  0.62500000  1
  C  C16  1  0.50000000  0.36928410  0.79166667  1
  C  C17  1  0.50000000  0.36928410  0.95833333  1
  C  C18  1  0.50000000  0.41681715  0.62500000  1
  C  C19  1  0.50000000  0.41681715  0.79166667  1
  C  C20  1  0.50000000  0.41681715  0.95833333  1
  C  C21  1  0.50000000  0.44058368  0.54166667  1
  C  C22  1  0.50000000  0.44058368  0.70833333  1
  C  C23  1  0.50000000  0.44058368  0.87500000  1
  C  C24  1  0.50000000  0.48811674  0.04166667  1
  C  C25  1  0.50000000  0.48811674  0.20833333  1
  C  C26  1  0.50000000  0.48811674  0.37500000  1
  C  C27  1  0.50000000  0.48811674  0.54166667  1
  C  C28  1  0.50000000  0.48811674  0.70833333  1
  C  C29  1  0.50000000  0.48811674  0.87500000  1
  C  C30  1  0.50000000  0.51188326  0.12500000  1
  C  C31  1  0.50000000  0.51188326  0.29166667  1
  C  C32  1  0.50000000  0.51188326  0.45833333  1
  C  C33  1  0.50000000  0.51188326  0.62500000  1
  C  C34  1  0.50000000  0.51188326  0.79166667  1
  C  C35  1  0.50000000  0.51188326  0.95833333  1
  C  C36  1  0.50000000  0.55941632  0.12500000  1
  C  C37  1  0.50000000  0.55941632  0.29166667  1
  C  C38  1  0.50000000  0.55941632  0.45833333  1
  C  C39  1  0.50000000  0.55941632  0.62500000  1
  C  C40  1  0.50000000  0.55941632  0.79166667  1
  C  C41  1  0.50000000  0.55941632  0.95833333  1
  C  C42  1  0.50000000  0.58318285  0.04166667  1
  C  C43  1  0.50000000  0.58318285  0.20833333  1
  C  C44  1  0.50000000  0.58318285  0.37500000  1
  C  C45  1  0.50000000  0.58318285  0.54166667  1
  C  C46  1  0.50000000  0.58318285  0.70833333  1
  C  C47  1  0.50000000  0.58318285  0.87500000  1
  C  C48  1  0.50000000  0.63071590  0.04166667  1
  C  C49  1  0.50000000  0.63071590  0.20833333  1
  C  C50  1  0.50000000  0.63071590  0.37500000  1
  C  C51  1  0.50000000  0.63071590  0.54166667  1
  C  C52  1  0.50000000  0.63071590  0.70833333  1
  C  C53  1  0.50000000  0.63071590  0.87500000  1
  C  C54  1  0.50000000  0.65448243  0.12500000  1
  C  C55  1  0.50000000  0.65448243  0.29166667  1
  C  C56  1  0.50000000  0.65448243  0.45833333  1
  C  C57  1  0.50000000  0.65448243  0.62500000  1
  C  C58  1  0.50000000  0.65448243  0.79166667  1
  C  C59  1  0.50000000  0.65448243  0.95833333  1
  C  C60  1  0.50000000  0.70201549  0.12500000  1
  C  C61  1  0.50000000  0.70201549  0.29166667  1
  C  C62  1  0.50000000  0.70201549  0.45833333  1
  C  C63  1  0.50000000  0.70201549  0.62500000  1
  C  C64  1  0.50000000  0.70201549  0.79166667  1
  C  C65  1  0.50000000  0.70201549  0.95833333  1
  C  C66  1  0.50000000  0.72578201  0.04166667  1
  C  C67  1  0.50000000  0.72578201  0.20833333  1
  C  C68  1  0.50000000  0.72578201  0.37500000  1
  C  C69  1  0.50000000  0.72578201  0.54166667  1
  C  C70  1  0.50000000  0.72578201  0.70833333  1
  C  C71  1  0.50000000  0.72578201  0.87500000  1
  C  C72  1  0.50000000  0.77331507  0.04166667  1
  C  C73  1  0.50000000  0.77331507  0.20833333  1
  C  C74  1  0.50000000  0.77331507  0.37500000  1
  C  C75  1  0.50000000  0.77331507  0.54166667  1
  C  C76  1  0.50000000  0.77331507  0.70833333  1
  C  C77  1  0.50000000  0.77331507  0.87500000  1
  C  C78  1  0.50000000  0.79708160  0.12500000  1
  C  C79  1  0.50000000  0.79708160  0.29166667  1
  C  C80  1  0.50000000  0.79708160  0.45833333  1
  C  C81  1  0.50000000  0.79708160  0.62500000  1
  C  C82  1  0.50000000  0.79708160  0.79166667  1
  C  C83  1  0.50000000  0.79708160  0.95833333  1
  H  H84  1  0.50000000  0.16645385  0.54166667  1
  H  H85  1  0.50000000  0.16645385  0.70833333  1
  H  H86  1  0.50000000  0.16645385  0.87500000  1
  H  H87  1  0.50000000  0.83354615  0.12500000  1
  H  H88  1  0.50000000  0.83354615  0.29166667  1
  H  H89  1  0.50000000  0.83354615  0.45833333  1
  H  H90  1  0.50000000  0.83354615  0.62500000  1
  H  H91  1  0.50000000  0.83354615  0.79166667  1
  H  H92  1  0.50000000  0.83354615  0.95833333  1
  H  H93  1  0.50000000  0.22115068  0.47773825  1
  H  H94  1  0.50000000  0.27975224  0.47773825  1
  H  H95  1  0.50000000  0.36374985  0.47773825  1
  H  H96  1  0.50000000  0.42235140  0.47773825  1
  H  H97  1  0.50000000  0.45165218  0.04166667  1
  H  H98  1  0.50000000  0.45165218  0.20833333  1
  H  H99  1  0.50000000  0.45165218  0.37500000  1
  H  H100  1  0.50000000  0.20845265  0.02226175  1
  H  H101  1  0.50000000  0.29245026  0.02226175  1
  H  H102  1  0.50000000  0.35105182  0.02226175  1
  H  H103  1  0.50000000  0.43504943  0.02226175  1
