# generated using pymatgen
data_H5C24
_symmetry_space_group_name_H-M   'P 1'
_cell_length_a   10.00000000
_cell_length_b   29.89204000
_cell_length_c   14.76601026
_cell_angle_alpha   90.00000000
_cell_angle_beta   90.00000000
_cell_angle_gamma   90.00000000
_symmetry_Int_Tables_number   1
_chemical_formula_structural   H5C24
_chemical_formula_sum   'H20 C96'
_cell_volume   4413.86169412
_cell_formula_units_Z   4
loop_
 _symmetry_equiv_pos_site_id
 _symmetry_equiv_pos_as_xyz
  1  'x, y, z'
loop_
 _atom_site_type_symbol
 _atom_site_label
 _atom_site_symmetry_multiplicity
 _atom_site_fract_x
 _atom_site_fract_y
 _atom_site_fract_z
 _atom_site_occupancy
  C  C0  1  0.50000000  0.83273139  0.54166667  1
  C  C1  1  0.50000000  0.83273139  0.70833333  1
  C  C2  1  0.50000000  0.83273139  0.87500000  1
  C  C3  1  0.50000000  0.16726861  0.54166667  1
  C  C4  1  0.50000000  0.16726861  0.70833333  1
  C  C5  1  0.50000000  0.16726861  0.87500000  1
  C  C6  1  0.50000000  0.19103514  0.62500000  1
  C  C7  1  0.50000000  0.19103514  0.79166667  1
  C  C8  1  0.50000000  0.19103514  0.95833333  1
  C  C9  1  0.50000000  0.23856819  0.12500000  1
  C  C10  1  0.50000000  0.23856819  0.29166667  1
  C  C11  1  0.50000000  0.23856819  0.45833333  1
  C  C12  1  0.50000000  0.23856819  0.62500000  1
  C  C13  1  0.50000000  0.23856819  0.79166667  1
  C  C14  1  0.50000000  0.23856819  0.95833333  1
  C  C15  1  0.50000000  0.26233472  0.04166667  1
  C  C16  1  0.50000000  0.26233472  0.20833333  1
  C  C17  1  0.50000000  0.26233472  0.37500000  1
  C  C18  1  0.50000000  0.26233472  0.54166667  1
  C  C19  1  0.50000000  0.26233472  0.70833333  1
  C  C20  1  0.50000000  0.26233472  0.87500000  1
  C  C21  1  0.50000000  0.30986778  0.04166667  1
  C  C22  1  0.50000000  0.30986778  0.20833333  1
  C  C23  1  0.50000000  0.30986778  0.37500000  1
  C  C24  1  0.50000000  0.30986778  0.54166667  1
  C  C25  1  0.50000000  0.30986778  0.70833333  1
  C  C26  1  0.50000000  0.30986778  0.87500000  1
  C  C27  1  0.50000000  0.33363431  0.12500000  1
  C  C28  1  0.50000000  0.33363431  0.29166667  1
  C  C29  1  0.50000000  0.33363431  0.45833333  1
  C  C30  1  0.50000000  0.33363431  0.62500000  1
  C  C31  1  0.50000000  0.33363431  0.79166667  1
  C  C32  1  0.50000000  0.33363431  0.95833333  1
  C  C33  1  0.50000000  0.38116736  0.12500000  1
  C  C34  1  0.50000000  0.38116736  0.29166667  1
  C  C35  1  0.50000000  0.38116736  0.45833333  1
  C  C36  1  0.50000000  0.38116736  0.62500000  1
  C  C37  1  0.50000000  0.38116736  0.79166667  1
  C  C38  1  0.50000000  0.38116736  0.95833333  1
  C  C39  1  0.50000000  0.40493389  0.04166667  1
  C  C40  1  0.50000000  0.40493389  0.20833333  1
  C  C41  1  0.50000000  0.40493389  0.37500000  1
  C  C42  1  0.50000000  0.40493389  0.54166667  1
  C  C43  1  0.50000000  0.40493389  0.70833333  1
  C  C44  1  0.50000000  0.40493389  0.87500000  1
  C  C45  1  0.50000000  0.45246694  0.04166667  1
  C  C46  1  0.50000000  0.45246694  0.20833333  1
  C  C47  1  0.50000000  0.45246694  0.37500000  1
  C  C48  1  0.50000000  0.45246694  0.54166667  1
  C  C49  1  0.50000000  0.45246694  0.70833333  1
  C  C50  1  0.50000000  0.45246694  0.87500000  1
  C  C51  1  0.50000000  0.47623347  0.12500000  1
  C  C52  1  0.50000000  0.47623347  0.29166667  1
  C  C53  1  0.50000000  0.47623347  0.45833333  1
  C  C54  1  0.50000000  0.47623347  0.62500000  1
  C  C55  1  0.50000000  0.47623347  0.79166667  1
  C  C56  1  0.50000000  0.47623347  0.95833333  1
  C  C57  1  0.50000000  0.52376653  0.12500000  1
  C  C58  1  0.50000000  0.52376653  0.29166667  1
  C  C59  1  0.50000000  0.52376653  0.45833333  1
  C  C60  1  0.50000000  0.52376653  0.62500000  1
  C  C61  1  0.50000000  0.52376653  0.79166667  1
  C  C62  1  0.50000000  0.52376653  0.95833333  1
  C  C63  1  0.50000000  0.54753306  0.04166667  1
  C  C64  1  0.50000000  0.54753306  0.20833333  1
  C  C65  1  0.50000000  0.54753306  0.37500000  1
  C  C66  1  0.50000000  0.54753306  0.54166667  1
  C  C67  1  0.50000000  0.54753306  0.70833333  1
  C  C68  1  0.50000000  0.54753306  0.87500000  1
  C  C69  1  0.50000000  0.59506611  0.04166667  1
  C  C70  1  0.50000000  0.59506611  0.20833333  1
  C  C71  1  0.50000000  0.59506611  0.37500000  1
  C  C72  1  0.50000000  0.59506611  0.54166667  1
  C  C73  1  0.50000000  0.59506611  0.70833333  1
  C  C74  1  0.50000000  0.59506611  0.87500000  1
  C  C75  1  0.50000000  0.61883264  0.12500000  1
  C  C76  1  0.50000000  0.61883264  0.29166667  1
  C  C77  1  0.50000000  0.61883264  0.45833333  1
  C  C78  1  0.50000000  0.61883264  0.62500000  1
  C  C79  1  0.50000000  0.61883264  0.79166667  1
  C  C80  1  0.50000000  0.61883264  0.95833333  1
  C  C81  1  0.50000000  0.66636569  0.62500000  1
  C  C82  1  0.50000000  0.66636569  0.79166667  1
  C  C83  1  0.50000000  0.66636569  0.95833333  1
  C  C84  1  0.50000000  0.69013222  0.54166667  1
  C  C85  1  0.50000000  0.69013222  0.70833333  1
  C  C86  1  0.50000000  0.69013222  0.87500000  1
  C  C87  1  0.50000000  0.73766528  0.54166667  1
  C  C88  1  0.50000000  0.73766528  0.70833333  1
  C  C89  1  0.50000000  0.73766528  0.87500000  1
  C  C90  1  0.50000000  0.76143181  0.62500000  1
  C  C91  1  0.50000000  0.76143181  0.79166667  1
  C  C92  1  0.50000000  0.76143181  0.95833333  1
  C  C93  1  0.50000000  0.80896486  0.62500000  1
  C  C94  1  0.50000000  0.80896486  0.79166667  1
  C  C95  1  0.50000000  0.80896486  0.95833333  1
  H  H96  1  0.50000000  0.86919594  0.54166667  1
  H  H97  1  0.50000000  0.86919594  0.70833333  1
  H  H98  1  0.50000000  0.86919594  0.87500000  1
  H  H99  1  0.50000000  0.13080406  0.54166667  1
  H  H100  1  0.50000000  0.13080406  0.70833333  1
  H  H101  1  0.50000000  0.13080406  0.87500000  1
  H  H102  1  0.50000000  0.81449911  0.47773825  1
  H  H103  1  0.50000000  0.18550089  0.47773825  1
  H  H104  1  0.50000000  0.20210364  0.12500000  1
  H  H105  1  0.50000000  0.20210364  0.29166667  1
  H  H106  1  0.50000000  0.20210364  0.45833333  1
  H  H107  1  0.50000000  0.65529719  0.12500000  1
  H  H108  1  0.50000000  0.65529719  0.29166667  1
  H  H109  1  0.50000000  0.65529719  0.45833333  1
  H  H110  1  0.50000000  0.67189995  0.47773825  1
  H  H111  1  0.50000000  0.75589756  0.47773825  1
  H  H112  1  0.50000000  0.17280286  0.02226175  1
  H  H113  1  0.50000000  0.68459797  0.02226175  1
  H  H114  1  0.50000000  0.74319953  0.02226175  1
  H  H115  1  0.50000000  0.82719714  0.02226175  1
