# generated using pymatgen
data_H5C12
_symmetry_space_group_name_H-M   'P 1'
_cell_length_a   10.00000000
_cell_length_b   21.36688000
_cell_length_c   14.76601026
_cell_angle_alpha   90.00000000
_cell_angle_beta   90.00000000
_cell_angle_gamma   90.00000000
_symmetry_Int_Tables_number   1
_chemical_formula_structural   H5C12
_chemical_formula_sum   'H20 C48'
_cell_volume   3155.03569361
_cell_formula_units_Z   4
loop_
 _symmetry_equiv_pos_site_id
 _symmetry_equiv_pos_as_xyz
  1  'x, y, z'
loop_
 _atom_site_type_symbol
 _atom_site_label
 _atom_site_symmetry_multiplicity
 _atom_site_fract_x
 _atom_site_fract_y
 _atom_site_fract_z
 _atom_site_occupancy
  C  C0  1  0.50000000  0.76599298  0.54166667  1
  C  C1  1  0.50000000  0.76599298  0.70833333  1
  C  C2  1  0.50000000  0.76599298  0.87500000  1
  C  C3  1  0.50000000  0.23400702  0.54166667  1
  C  C4  1  0.50000000  0.23400702  0.70833333  1
  C  C5  1  0.50000000  0.23400702  0.87500000  1
  C  C6  1  0.50000000  0.26725615  0.62500000  1
  C  C7  1  0.50000000  0.26725615  0.79166667  1
  C  C8  1  0.50000000  0.26725615  0.95833333  1
  C  C9  1  0.50000000  0.33375439  0.12500000  1
  C  C10  1  0.50000000  0.33375439  0.29166667  1
  C  C11  1  0.50000000  0.33375439  0.45833333  1
  C  C12  1  0.50000000  0.33375439  0.62500000  1
  C  C13  1  0.50000000  0.33375439  0.79166667  1
  C  C14  1  0.50000000  0.33375439  0.95833333  1
  C  C15  1  0.50000000  0.36700351  0.04166667  1
  C  C16  1  0.50000000  0.36700351  0.20833333  1
  C  C17  1  0.50000000  0.36700351  0.37500000  1
  C  C18  1  0.50000000  0.36700351  0.54166667  1
  C  C19  1  0.50000000  0.36700351  0.70833333  1
  C  C20  1  0.50000000  0.36700351  0.87500000  1
  C  C21  1  0.50000000  0.43350176  0.04166667  1
  C  C22  1  0.50000000  0.43350176  0.20833333  1
  C  C23  1  0.50000000  0.43350176  0.37500000  1
  C  C24  1  0.50000000  0.43350176  0.54166667  1
  C  C25  1  0.50000000  0.43350176  0.70833333  1
  C  C26  1  0.50000000  0.43350176  0.87500000  1
  C  C27  1  0.50000000  0.46675088  0.12500000  1
  C  C28  1  0.50000000  0.46675088  0.29166667  1
  C  C29  1  0.50000000  0.46675088  0.45833333  1
  C  C30  1  0.50000000  0.46675088  0.62500000  1
  C  C31  1  0.50000000  0.46675088  0.79166667  1
  C  C32  1  0.50000000  0.46675088  0.95833333  1
  C  C33  1  0.50000000  0.53324912  0.62500000  1
  C  C34  1  0.50000000  0.53324912  0.79166667  1
  C  C35  1  0.50000000  0.53324912  0.95833333  1
  C  C36  1  0.50000000  0.56649824  0.54166667  1
  C  C37  1  0.50000000  0.56649824  0.70833333  1
  C  C38  1  0.50000000  0.56649824  0.87500000  1
  C  C39  1  0.50000000  0.63299649  0.54166667  1
  C  C40  1  0.50000000  0.63299649  0.70833333  1
  C  C41  1  0.50000000  0.63299649  0.87500000  1
  C  C42  1  0.50000000  0.66624561  0.62500000  1
  C  C43  1  0.50000000  0.66624561  0.79166667  1
  C  C44  1  0.50000000  0.66624561  0.95833333  1
  C  C45  1  0.50000000  0.73274385  0.62500000  1
  C  C46  1  0.50000000  0.73274385  0.79166667  1
  C  C47  1  0.50000000  0.73274385  0.95833333  1
  H  H48  1  0.50000000  0.81700650  0.54166667  1
  H  H49  1  0.50000000  0.81700650  0.70833333  1
  H  H50  1  0.50000000  0.81700650  0.87500000  1
  H  H51  1  0.50000000  0.18299350  0.54166667  1
  H  H52  1  0.50000000  0.18299350  0.70833333  1
  H  H53  1  0.50000000  0.18299350  0.87500000  1
  H  H54  1  0.50000000  0.74048621  0.47773825  1
  H  H55  1  0.50000000  0.25951379  0.47773825  1
  H  H56  1  0.50000000  0.28274086  0.12500000  1
  H  H57  1  0.50000000  0.28274086  0.29166667  1
  H  H58  1  0.50000000  0.28274086  0.45833333  1
  H  H59  1  0.50000000  0.51776441  0.12500000  1
  H  H60  1  0.50000000  0.51776441  0.29166667  1
  H  H61  1  0.50000000  0.51776441  0.45833333  1
  H  H62  1  0.50000000  0.54099148  0.47773825  1
  H  H63  1  0.50000000  0.65850325  0.47773825  1
  H  H64  1  0.50000000  0.24174938  0.02226175  1
  H  H65  1  0.50000000  0.55875589  0.02226175  1
  H  H66  1  0.50000000  0.64073885  0.02226175  1
  H  H67  1  0.50000000  0.75825062  0.02226175  1
