# generated using pymatgen
data_H4C9
_symmetry_space_group_name_H-M   'P 1'
_cell_length_a   10.00000000
_cell_length_b   17.10430000
_cell_length_c   14.76601026
_cell_angle_alpha   90.00000000
_cell_angle_beta   90.00000000
_cell_angle_gamma   90.00000000
_symmetry_Int_Tables_number   1
_chemical_formula_structural   H4C9
_chemical_formula_sum   'H16 C36'
_cell_volume   2525.62269336
_cell_formula_units_Z   4
loop_
 _symmetry_equiv_pos_site_id
 _symmetry_equiv_pos_as_xyz
  1  'x, y, z'
loop_
 _atom_site_type_symbol
 _atom_site_label
 _atom_site_symmetry_multiplicity
 _atom_site_fract_x
 _atom_site_fract_y
 _atom_site_fract_z
 _atom_site_occupancy
  C  C0  1  0.50000000  0.70767585  0.54166667  1
  C  C1  1  0.50000000  0.70767585  0.70833333  1
  C  C2  1  0.50000000  0.70767585  0.87500000  1
  C  C3  1  0.50000000  0.29232415  0.04166667  1
  C  C4  1  0.50000000  0.29232415  0.20833333  1
  C  C5  1  0.50000000  0.29232415  0.37500000  1
  C  C6  1  0.50000000  0.29232415  0.54166667  1
  C  C7  1  0.50000000  0.29232415  0.70833333  1
  C  C8  1  0.50000000  0.29232415  0.87500000  1
  C  C9  1  0.50000000  0.33385932  0.12500000  1
  C  C10  1  0.50000000  0.33385932  0.29166667  1
  C  C11  1  0.50000000  0.33385932  0.45833333  1
  C  C12  1  0.50000000  0.33385932  0.62500000  1
  C  C13  1  0.50000000  0.33385932  0.79166667  1
  C  C14  1  0.50000000  0.33385932  0.95833333  1
  C  C15  1  0.50000000  0.41692966  0.12500000  1
  C  C16  1  0.50000000  0.41692966  0.29166667  1
  C  C17  1  0.50000000  0.41692966  0.45833333  1
  C  C18  1  0.50000000  0.41692966  0.62500000  1
  C  C19  1  0.50000000  0.41692966  0.79166667  1
  C  C20  1  0.50000000  0.41692966  0.95833333  1
  C  C21  1  0.50000000  0.45846483  0.04166667  1
  C  C22  1  0.50000000  0.45846483  0.20833333  1
  C  C23  1  0.50000000  0.45846483  0.37500000  1
  C  C24  1  0.50000000  0.45846483  0.54166667  1
  C  C25  1  0.50000000  0.45846483  0.70833333  1
  C  C26  1  0.50000000  0.45846483  0.87500000  1
  C  C27  1  0.50000000  0.54153517  0.54166667  1
  C  C28  1  0.50000000  0.54153517  0.70833333  1
  C  C29  1  0.50000000  0.54153517  0.87500000  1
  C  C30  1  0.50000000  0.58307034  0.62500000  1
  C  C31  1  0.50000000  0.58307034  0.79166667  1
  C  C32  1  0.50000000  0.58307034  0.95833333  1
  C  C33  1  0.50000000  0.66614068  0.62500000  1
  C  C34  1  0.50000000  0.66614068  0.79166667  1
  C  C35  1  0.50000000  0.66614068  0.95833333  1
  H  H36  1  0.50000000  0.77140251  0.54166667  1
  H  H37  1  0.50000000  0.77140251  0.70833333  1
  H  H38  1  0.50000000  0.77140251  0.87500000  1
  H  H39  1  0.50000000  0.22859749  0.04166667  1
  H  H40  1  0.50000000  0.22859749  0.20833333  1
  H  H41  1  0.50000000  0.22859749  0.37500000  1
  H  H42  1  0.50000000  0.22859749  0.54166667  1
  H  H43  1  0.50000000  0.22859749  0.70833333  1
  H  H44  1  0.50000000  0.22859749  0.87500000  1
  H  H45  1  0.50000000  0.67581252  0.47773825  1
  H  H46  1  0.50000000  0.52219149  0.04166667  1
  H  H47  1  0.50000000  0.52219149  0.20833333  1
  H  H48  1  0.50000000  0.52219149  0.37500000  1
  H  H49  1  0.50000000  0.57339850  0.47773825  1
  H  H50  1  0.50000000  0.55120701  0.02226175  1
  H  H51  1  0.50000000  0.69800401  0.02226175  1
