# generated using pymatgen
data_H11C27
_symmetry_space_group_name_H-M   'P 1'
_cell_length_a   10.00000000
_cell_length_b   25.62946000
_cell_length_c   14.76601026
_cell_angle_alpha   90.00000000
_cell_angle_beta   90.00000000
_cell_angle_gamma   90.00000000
_symmetry_Int_Tables_number   1
_chemical_formula_structural   H11C27
_chemical_formula_sum   'H22 C54'
_cell_volume   3784.44869386
_cell_formula_units_Z   2
loop_
 _symmetry_equiv_pos_site_id
 _symmetry_equiv_pos_as_xyz
  1  'x, y, z'
loop_
 _atom_site_type_symbol
 _atom_site_label
 _atom_site_symmetry_multiplicity
 _atom_site_fract_x
 _atom_site_fract_y
 _atom_site_fract_z
 _atom_site_occupancy
  C  C0  1  0.50000000  0.23666691  0.54166667  1
  C  C1  1  0.50000000  0.23666691  0.70833333  1
  C  C2  1  0.50000000  0.23666691  0.87500000  1
  C  C3  1  0.50000000  0.26438618  0.62500000  1
  C  C4  1  0.50000000  0.26438618  0.79166667  1
  C  C5  1  0.50000000  0.26438618  0.95833333  1
  C  C6  1  0.50000000  0.31982473  0.62500000  1
  C  C7  1  0.50000000  0.31982473  0.79166667  1
  C  C8  1  0.50000000  0.31982473  0.95833333  1
  C  C9  1  0.50000000  0.34754400  0.54166667  1
  C  C10  1  0.50000000  0.34754400  0.70833333  1
  C  C11  1  0.50000000  0.34754400  0.87500000  1
  C  C12  1  0.50000000  0.40298254  0.54166667  1
  C  C13  1  0.50000000  0.40298254  0.70833333  1
  C  C14  1  0.50000000  0.40298254  0.87500000  1
  C  C15  1  0.50000000  0.43070182  0.62500000  1
  C  C16  1  0.50000000  0.43070182  0.79166667  1
  C  C17  1  0.50000000  0.43070182  0.95833333  1
  C  C18  1  0.50000000  0.48614036  0.62500000  1
  C  C19  1  0.50000000  0.48614036  0.79166667  1
  C  C20  1  0.50000000  0.48614036  0.95833333  1
  C  C21  1  0.50000000  0.51385964  0.54166667  1
  C  C22  1  0.50000000  0.51385964  0.70833333  1
  C  C23  1  0.50000000  0.51385964  0.87500000  1
  C  C24  1  0.50000000  0.56929818  0.54166667  1
  C  C25  1  0.50000000  0.56929818  0.70833333  1
  C  C26  1  0.50000000  0.56929818  0.87500000  1
  C  C27  1  0.50000000  0.59701746  0.62500000  1
  C  C28  1  0.50000000  0.59701746  0.79166667  1
  C  C29  1  0.50000000  0.59701746  0.95833333  1
  C  C30  1  0.50000000  0.65245600  0.12500000  1
  C  C31  1  0.50000000  0.65245600  0.29166667  1
  C  C32  1  0.50000000  0.65245600  0.45833333  1
  C  C33  1  0.50000000  0.65245600  0.62500000  1
  C  C34  1  0.50000000  0.65245600  0.79166667  1
  C  C35  1  0.50000000  0.65245600  0.95833333  1
  C  C36  1  0.50000000  0.68017527  0.04166667  1
  C  C37  1  0.50000000  0.68017527  0.20833333  1
  C  C38  1  0.50000000  0.68017527  0.37500000  1
  C  C39  1  0.50000000  0.68017527  0.54166667  1
  C  C40  1  0.50000000  0.68017527  0.70833333  1
  C  C41  1  0.50000000  0.68017527  0.87500000  1
  C  C42  1  0.50000000  0.73561382  0.04166667  1
  C  C43  1  0.50000000  0.73561382  0.20833333  1
  C  C44  1  0.50000000  0.73561382  0.37500000  1
  C  C45  1  0.50000000  0.73561382  0.54166667  1
  C  C46  1  0.50000000  0.73561382  0.70833333  1
  C  C47  1  0.50000000  0.73561382  0.87500000  1
  C  C48  1  0.50000000  0.76333309  0.12500000  1
  C  C49  1  0.50000000  0.76333309  0.29166667  1
  C  C50  1  0.50000000  0.76333309  0.45833333  1
  C  C51  1  0.50000000  0.76333309  0.62500000  1
  C  C52  1  0.50000000  0.76333309  0.79166667  1
  C  C53  1  0.50000000  0.76333309  0.95833333  1
  H  H54  1  0.50000000  0.19413773  0.54166667  1
  H  H55  1  0.50000000  0.19413773  0.70833333  1
  H  H56  1  0.50000000  0.19413773  0.87500000  1
  H  H57  1  0.50000000  0.80586227  0.12500000  1
  H  H58  1  0.50000000  0.80586227  0.29166667  1
  H  H59  1  0.50000000  0.80586227  0.45833333  1
  H  H60  1  0.50000000  0.80586227  0.62500000  1
  H  H61  1  0.50000000  0.80586227  0.79166667  1
  H  H62  1  0.50000000  0.80586227  0.95833333  1
  H  H63  1  0.50000000  0.25793150  0.47773825  1
  H  H64  1  0.50000000  0.32627941  0.47773825  1
  H  H65  1  0.50000000  0.42424713  0.47773825  1
  H  H66  1  0.50000000  0.49259505  0.47773825  1
  H  H67  1  0.50000000  0.59056277  0.47773825  1
  H  H68  1  0.50000000  0.60992682  0.12500000  1
  H  H69  1  0.50000000  0.60992682  0.29166667  1
  H  H70  1  0.50000000  0.60992682  0.45833333  1
  H  H71  1  0.50000000  0.24312159  0.02226175  1
  H  H72  1  0.50000000  0.34108932  0.02226175  1
  H  H73  1  0.50000000  0.40943723  0.02226175  1
  H  H74  1  0.50000000  0.50740495  0.02226175  1
  H  H75  1  0.50000000  0.57575287  0.02226175  1
