# generated using pymatgen
data_H7C27
_symmetry_space_group_name_H-M   'P 1'
_cell_length_a   10.00000000
_cell_length_b   21.36688000
_cell_length_c   14.76601026
_cell_angle_alpha   90.00000000
_cell_angle_beta   90.00000000
_cell_angle_gamma   90.00000000
_symmetry_Int_Tables_number   1
_chemical_formula_structural   H7C27
_chemical_formula_sum   'H14 C54'
_cell_volume   3155.03569361
_cell_formula_units_Z   2
loop_
 _symmetry_equiv_pos_site_id
 _symmetry_equiv_pos_as_xyz
  1  'x, y, z'
loop_
 _atom_site_type_symbol
 _atom_site_label
 _atom_site_symmetry_multiplicity
 _atom_site_fract_x
 _atom_site_fract_y
 _atom_site_fract_z
 _atom_site_occupancy
  C  C0  1  0.50000000  0.28388071  0.54166667  1
  C  C1  1  0.50000000  0.28388071  0.70833333  1
  C  C2  1  0.50000000  0.28388071  0.87500000  1
  C  C3  1  0.50000000  0.31712983  0.62500000  1
  C  C4  1  0.50000000  0.31712983  0.79166667  1
  C  C5  1  0.50000000  0.31712983  0.95833333  1
  C  C6  1  0.50000000  0.38362807  0.12500000  1
  C  C7  1  0.50000000  0.38362807  0.29166667  1
  C  C8  1  0.50000000  0.38362807  0.45833333  1
  C  C9  1  0.50000000  0.38362807  0.62500000  1
  C  C10  1  0.50000000  0.38362807  0.79166667  1
  C  C11  1  0.50000000  0.38362807  0.95833333  1
  C  C12  1  0.50000000  0.41687719  0.04166667  1
  C  C13  1  0.50000000  0.41687719  0.20833333  1
  C  C14  1  0.50000000  0.41687719  0.37500000  1
  C  C15  1  0.50000000  0.41687719  0.54166667  1
  C  C16  1  0.50000000  0.41687719  0.70833333  1
  C  C17  1  0.50000000  0.41687719  0.87500000  1
  C  C18  1  0.50000000  0.48337544  0.04166667  1
  C  C19  1  0.50000000  0.48337544  0.20833333  1
  C  C20  1  0.50000000  0.48337544  0.37500000  1
  C  C21  1  0.50000000  0.48337544  0.54166667  1
  C  C22  1  0.50000000  0.48337544  0.70833333  1
  C  C23  1  0.50000000  0.48337544  0.87500000  1
  C  C24  1  0.50000000  0.51662456  0.12500000  1
  C  C25  1  0.50000000  0.51662456  0.29166667  1
  C  C26  1  0.50000000  0.51662456  0.45833333  1
  C  C27  1  0.50000000  0.51662456  0.62500000  1
  C  C28  1  0.50000000  0.51662456  0.79166667  1
  C  C29  1  0.50000000  0.51662456  0.95833333  1
  C  C30  1  0.50000000  0.58312281  0.12500000  1
  C  C31  1  0.50000000  0.58312281  0.29166667  1
  C  C32  1  0.50000000  0.58312281  0.45833333  1
  C  C33  1  0.50000000  0.58312281  0.62500000  1
  C  C34  1  0.50000000  0.58312281  0.79166667  1
  C  C35  1  0.50000000  0.58312281  0.95833333  1
  C  C36  1  0.50000000  0.61637193  0.04166667  1
  C  C37  1  0.50000000  0.61637193  0.20833333  1
  C  C38  1  0.50000000  0.61637193  0.37500000  1
  C  C39  1  0.50000000  0.61637193  0.54166667  1
  C  C40  1  0.50000000  0.61637193  0.70833333  1
  C  C41  1  0.50000000  0.61637193  0.87500000  1
  C  C42  1  0.50000000  0.68287017  0.04166667  1
  C  C43  1  0.50000000  0.68287017  0.20833333  1
  C  C44  1  0.50000000  0.68287017  0.37500000  1
  C  C45  1  0.50000000  0.68287017  0.54166667  1
  C  C46  1  0.50000000  0.68287017  0.70833333  1
  C  C47  1  0.50000000  0.68287017  0.87500000  1
  C  C48  1  0.50000000  0.71611929  0.12500000  1
  C  C49  1  0.50000000  0.71611929  0.29166667  1
  C  C50  1  0.50000000  0.71611929  0.45833333  1
  C  C51  1  0.50000000  0.71611929  0.62500000  1
  C  C52  1  0.50000000  0.71611929  0.79166667  1
  C  C53  1  0.50000000  0.71611929  0.95833333  1
  H  H54  1  0.50000000  0.23286718  0.54166667  1
  H  H55  1  0.50000000  0.23286718  0.70833333  1
  H  H56  1  0.50000000  0.23286718  0.87500000  1
  H  H57  1  0.50000000  0.76713282  0.12500000  1
  H  H58  1  0.50000000  0.76713282  0.29166667  1
  H  H59  1  0.50000000  0.76713282  0.45833333  1
  H  H60  1  0.50000000  0.76713282  0.62500000  1
  H  H61  1  0.50000000  0.76713282  0.79166667  1
  H  H62  1  0.50000000  0.76713282  0.95833333  1
  H  H63  1  0.50000000  0.30938747  0.47773825  1
  H  H64  1  0.50000000  0.33261455  0.12500000  1
  H  H65  1  0.50000000  0.33261455  0.29166667  1
  H  H66  1  0.50000000  0.33261455  0.45833333  1
  H  H67  1  0.50000000  0.29162307  0.02226175  1
