# generated using pymatgen
data_H3C7
_symmetry_space_group_name_H-M   'P 1'
_cell_length_a   10.00000000
_cell_length_b   21.36688000
_cell_length_c   14.78099106
_cell_angle_alpha   90.00000000
_cell_angle_beta   90.00000000
_cell_angle_gamma   90.00000000
_symmetry_Int_Tables_number   1
_chemical_formula_structural   H3C7
_chemical_formula_sum   'H18 C42'
_cell_volume   3158.23662290
_cell_formula_units_Z   6
loop_
 _symmetry_equiv_pos_site_id
 _symmetry_equiv_pos_as_xyz
  1  'x, y, z'
loop_
 _atom_site_type_symbol
 _atom_site_label
 _atom_site_symmetry_multiplicity
 _atom_site_fract_x
 _atom_site_fract_y
 _atom_site_fract_z
 _atom_site_occupancy
  C  C0  1  0.50000000  0.28388071  0.04087091  1
  C  C1  1  0.50000000  0.28388071  0.20736866  1
  C  C2  1  0.50000000  0.28388071  0.37386641  1
  C  C3  1  0.50000000  0.28213705  0.54288472  1
  C  C4  1  0.50000000  0.28213705  0.70938247  1
  C  C5  1  0.50000000  0.28213705  0.87588021  1
  C  C6  1  0.50000000  0.31712983  0.12411979  1
  C  C7  1  0.50000000  0.31712983  0.29061753  1
  C  C8  1  0.50000000  0.31538617  0.45963585  1
  C  C9  1  0.50000000  0.31538617  0.62613359  1
  C  C10  1  0.50000000  0.31538617  0.79263134  1
  C  C11  1  0.50000000  0.31538617  0.95912909  1
  C  C12  1  0.50000000  0.38362807  0.12411979  1
  C  C13  1  0.50000000  0.38362807  0.29061753  1
  C  C14  1  0.50000000  0.38188442  0.45963585  1
  C  C15  1  0.50000000  0.38188442  0.62613359  1
  C  C16  1  0.50000000  0.38188442  0.79263134  1
  C  C17  1  0.50000000  0.38188442  0.95912909  1
  C  C18  1  0.50000000  0.41687719  0.04087091  1
  C  C19  1  0.50000000  0.41687719  0.20736866  1
  C  C20  1  0.50000000  0.41687719  0.37386641  1
  C  C21  1  0.50000000  0.41513354  0.54288472  1
  C  C22  1  0.50000000  0.41513354  0.70938247  1
  C  C23  1  0.50000000  0.41513354  0.87588021  1
  C  C24  1  0.50000000  0.48163178  0.54288472  1
  C  C25  1  0.50000000  0.48163178  0.70938247  1
  C  C26  1  0.50000000  0.48163178  0.87588021  1
  C  C27  1  0.50000000  0.51488091  0.62613359  1
  C  C28  1  0.50000000  0.51488091  0.79263134  1
  C  C29  1  0.50000000  0.51488091  0.95912909  1
  C  C30  1  0.50000000  0.58137915  0.62613359  1
  C  C31  1  0.50000000  0.58137915  0.79263134  1
  C  C32  1  0.50000000  0.58137915  0.95912909  1
  C  C33  1  0.50000000  0.61462827  0.54288472  1
  C  C34  1  0.50000000  0.61462827  0.70938247  1
  C  C35  1  0.50000000  0.61462827  0.87588021  1
  C  C36  1  0.50000000  0.68112652  0.54288472  1
  C  C37  1  0.50000000  0.68112652  0.70938247  1
  C  C38  1  0.50000000  0.68112652  0.87588021  1
  C  C39  1  0.50000000  0.71437564  0.62613359  1
  C  C40  1  0.50000000  0.71437564  0.79263134  1
  C  C41  1  0.50000000  0.71437564  0.95912909  1
  H  H42  1  0.50000000  0.23286718  0.04087091  1
  H  H43  1  0.50000000  0.23286718  0.20736866  1
  H  H44  1  0.50000000  0.23286718  0.37386641  1
  H  H45  1  0.50000000  0.23112352  0.54288472  1
  H  H46  1  0.50000000  0.23112352  0.70938247  1
  H  H47  1  0.50000000  0.23112352  0.87588021  1
  H  H48  1  0.50000000  0.76538917  0.62613359  1
  H  H49  1  0.50000000  0.76538917  0.79263134  1
  H  H50  1  0.50000000  0.76538917  0.95912909  1
  H  H51  1  0.50000000  0.46789072  0.04087091  1
  H  H52  1  0.50000000  0.46789072  0.20736866  1
  H  H53  1  0.50000000  0.46789072  0.37386641  1
  H  H54  1  0.50000000  0.50713855  0.47902110  1
  H  H55  1  0.50000000  0.58912151  0.47902110  1
  H  H56  1  0.50000000  0.70663328  0.47902110  1
  H  H57  1  0.50000000  0.48937414  0.02299271  1
  H  H58  1  0.50000000  0.60688591  0.02299271  1
  H  H59  1  0.50000000  0.68886887  0.02299271  1
