# generated using pymatgen
data_H5C36
_symmetry_space_group_name_H-M   'P 1'
_cell_length_a   10.00000000
_cell_length_b   29.89204000
_cell_length_c   19.68801368
_cell_angle_alpha   90.00000000
_cell_angle_beta   90.00000000
_cell_angle_gamma   90.00000000
_symmetry_Int_Tables_number   1
_chemical_formula_structural   H5C36
_chemical_formula_sum   'H20 C144'
_cell_volume   5885.14892549
_cell_formula_units_Z   4
loop_
 _symmetry_equiv_pos_site_id
 _symmetry_equiv_pos_as_xyz
  1  'x, y, z'
loop_
 _atom_site_type_symbol
 _atom_site_label
 _atom_site_symmetry_multiplicity
 _atom_site_fract_x
 _atom_site_fract_y
 _atom_site_fract_z
 _atom_site_occupancy
  C  C0  1  0.50000000  0.83273139  0.50727684  1
  C  C1  1  0.50000000  0.83273139  0.63227684  1
  C  C2  1  0.50000000  0.83273139  0.75727684  1
  C  C3  1  0.50000000  0.83273139  0.88227684  1
  C  C4  1  0.50000000  0.16726861  0.50727684  1
  C  C5  1  0.50000000  0.16726861  0.63227684  1
  C  C6  1  0.50000000  0.16726861  0.75727684  1
  C  C7  1  0.50000000  0.16726861  0.88227684  1
  C  C8  1  0.50000000  0.19103514  0.56977684  1
  C  C9  1  0.50000000  0.19103514  0.69477684  1
  C  C10  1  0.50000000  0.19103514  0.81977684  1
  C  C11  1  0.50000000  0.19103514  0.94477684  1
  C  C12  1  0.50000000  0.23856819  0.06977684  1
  C  C13  1  0.50000000  0.23856819  0.19477684  1
  C  C14  1  0.50000000  0.23856819  0.31977684  1
  C  C15  1  0.50000000  0.23856819  0.44477684  1
  C  C16  1  0.50000000  0.23856819  0.56977684  1
  C  C17  1  0.50000000  0.23856819  0.69477684  1
  C  C18  1  0.50000000  0.23856819  0.81977684  1
  C  C19  1  0.50000000  0.23856819  0.94477684  1
  C  C20  1  0.50000000  0.26233472  0.00727684  1
  C  C21  1  0.50000000  0.26233472  0.13227684  1
  C  C22  1  0.50000000  0.26233472  0.25727684  1
  C  C23  1  0.50000000  0.26233472  0.38227684  1
  C  C24  1  0.50000000  0.26233472  0.50727684  1
  C  C25  1  0.50000000  0.26233472  0.63227684  1
  C  C26  1  0.50000000  0.26233472  0.75727684  1
  C  C27  1  0.50000000  0.26233472  0.88227684  1
  C  C28  1  0.50000000  0.30986778  0.00727684  1
  C  C29  1  0.50000000  0.30986778  0.13227684  1
  C  C30  1  0.50000000  0.30986778  0.25727684  1
  C  C31  1  0.50000000  0.30986778  0.38227684  1
  C  C32  1  0.50000000  0.30986778  0.50727684  1
  C  C33  1  0.50000000  0.30986778  0.63227684  1
  C  C34  1  0.50000000  0.30986778  0.75727684  1
  C  C35  1  0.50000000  0.30986778  0.88227684  1
  C  C36  1  0.50000000  0.33363431  0.06977684  1
  C  C37  1  0.50000000  0.33363431  0.19477684  1
  C  C38  1  0.50000000  0.33363431  0.31977684  1
  C  C39  1  0.50000000  0.33363431  0.44477684  1
  C  C40  1  0.50000000  0.33363431  0.56977684  1
  C  C41  1  0.50000000  0.33363431  0.69477684  1
  C  C42  1  0.50000000  0.33363431  0.81977684  1
  C  C43  1  0.50000000  0.33363431  0.94477684  1
  C  C44  1  0.50000000  0.38116736  0.06977684  1
  C  C45  1  0.50000000  0.38116736  0.19477684  1
  C  C46  1  0.50000000  0.38116736  0.31977684  1
  C  C47  1  0.50000000  0.38116736  0.44477684  1
  C  C48  1  0.50000000  0.38116736  0.56977684  1
  C  C49  1  0.50000000  0.38116736  0.69477684  1
  C  C50  1  0.50000000  0.38116736  0.81977684  1
  C  C51  1  0.50000000  0.38116736  0.94477684  1
  C  C52  1  0.50000000  0.40493389  0.00727684  1
  C  C53  1  0.50000000  0.40493389  0.13227684  1
  C  C54  1  0.50000000  0.40493389  0.25727684  1
  C  C55  1  0.50000000  0.40493389  0.38227684  1
  C  C56  1  0.50000000  0.40493389  0.50727684  1
  C  C57  1  0.50000000  0.40493389  0.63227684  1
  C  C58  1  0.50000000  0.40493389  0.75727684  1
  C  C59  1  0.50000000  0.40493389  0.88227684  1
  C  C60  1  0.50000000  0.45246694  0.00727684  1
  C  C61  1  0.50000000  0.45246694  0.13227684  1
  C  C62  1  0.50000000  0.45246694  0.25727684  1
  C  C63  1  0.50000000  0.45246694  0.38227684  1
  C  C64  1  0.50000000  0.45246694  0.50727684  1
  C  C65  1  0.50000000  0.45246694  0.63227684  1
  C  C66  1  0.50000000  0.45246694  0.75727684  1
  C  C67  1  0.50000000  0.45246694  0.88227684  1
  C  C68  1  0.50000000  0.47623347  0.06977684  1
  C  C69  1  0.50000000  0.47623347  0.19477684  1
  C  C70  1  0.50000000  0.47623347  0.31977684  1
  C  C71  1  0.50000000  0.47623347  0.44477684  1
  C  C72  1  0.50000000  0.47623347  0.56977684  1
  C  C73  1  0.50000000  0.47623347  0.69477684  1
  C  C74  1  0.50000000  0.47623347  0.81977684  1
  C  C75  1  0.50000000  0.47623347  0.94477684  1
  C  C76  1  0.50000000  0.52376653  0.06977684  1
  C  C77  1  0.50000000  0.52376653  0.19477684  1
  C  C78  1  0.50000000  0.52376653  0.31977684  1
  C  C79  1  0.50000000  0.52376653  0.44477684  1
  C  C80  1  0.50000000  0.52376653  0.56977684  1
  C  C81  1  0.50000000  0.52376653  0.69477684  1
  C  C82  1  0.50000000  0.52376653  0.81977684  1
  C  C83  1  0.50000000  0.52376653  0.94477684  1
  C  C84  1  0.50000000  0.54753306  0.00727684  1
  C  C85  1  0.50000000  0.54753306  0.13227684  1
  C  C86  1  0.50000000  0.54753306  0.25727684  1
  C  C87  1  0.50000000  0.54753306  0.38227684  1
  C  C88  1  0.50000000  0.54753306  0.50727684  1
  C  C89  1  0.50000000  0.54753306  0.63227684  1
  C  C90  1  0.50000000  0.54753306  0.75727684  1
  C  C91  1  0.50000000  0.54753306  0.88227684  1
  C  C92  1  0.50000000  0.59506611  0.00727684  1
  C  C93  1  0.50000000  0.59506611  0.13227684  1
  C  C94  1  0.50000000  0.59506611  0.25727684  1
  C  C95  1  0.50000000  0.59506611  0.38227684  1
  C  C96  1  0.50000000  0.59506611  0.50727684  1
  C  C97  1  0.50000000  0.59506611  0.63227684  1
  C  C98  1  0.50000000  0.59506611  0.75727684  1
  C  C99  1  0.50000000  0.59506611  0.88227684  1
  C  C100  1  0.50000000  0.61883264  0.06977684  1
  C  C101  1  0.50000000  0.61883264  0.19477684  1
  C  C102  1  0.50000000  0.61883264  0.31977684  1
  C  C103  1  0.50000000  0.61883264  0.44477684  1
  C  C104  1  0.50000000  0.61883264  0.56977684  1
  C  C105  1  0.50000000  0.61883264  0.69477684  1
  C  C106  1  0.50000000  0.61883264  0.81977684  1
  C  C107  1  0.50000000  0.61883264  0.94477684  1
  C  C108  1  0.50000000  0.66636569  0.06977684  1
  C  C109  1  0.50000000  0.66636569  0.19477684  1
  C  C110  1  0.50000000  0.66636569  0.31977684  1
  C  C111  1  0.50000000  0.66636569  0.44477684  1
  C  C112  1  0.50000000  0.66636569  0.56977684  1
  C  C113  1  0.50000000  0.66636569  0.69477684  1
  C  C114  1  0.50000000  0.66636569  0.81977684  1
  C  C115  1  0.50000000  0.66636569  0.94477684  1
  C  C116  1  0.50000000  0.69013222  0.00727684  1
  C  C117  1  0.50000000  0.69013222  0.13227684  1
  C  C118  1  0.50000000  0.69013222  0.25727684  1
  C  C119  1  0.50000000  0.69013222  0.38227684  1
  C  C120  1  0.50000000  0.69013222  0.50727684  1
  C  C121  1  0.50000000  0.69013222  0.63227684  1
  C  C122  1  0.50000000  0.69013222  0.75727684  1
  C  C123  1  0.50000000  0.69013222  0.88227684  1
  C  C124  1  0.50000000  0.73766528  0.00727684  1
  C  C125  1  0.50000000  0.73766528  0.13227684  1
  C  C126  1  0.50000000  0.73766528  0.25727684  1
  C  C127  1  0.50000000  0.73766528  0.38227684  1
  C  C128  1  0.50000000  0.73766528  0.50727684  1
  C  C129  1  0.50000000  0.73766528  0.63227684  1
  C  C130  1  0.50000000  0.73766528  0.75727684  1
  C  C131  1  0.50000000  0.73766528  0.88227684  1
  C  C132  1  0.50000000  0.76143181  0.06977684  1
  C  C133  1  0.50000000  0.76143181  0.19477684  1
  C  C134  1  0.50000000  0.76143181  0.31977684  1
  C  C135  1  0.50000000  0.76143181  0.44477684  1
  C  C136  1  0.50000000  0.76143181  0.56977684  1
  C  C137  1  0.50000000  0.76143181  0.69477684  1
  C  C138  1  0.50000000  0.76143181  0.81977684  1
  C  C139  1  0.50000000  0.76143181  0.94477684  1
  C  C140  1  0.50000000  0.80896486  0.56977684  1
  C  C141  1  0.50000000  0.80896486  0.69477684  1
  C  C142  1  0.50000000  0.80896486  0.81977684  1
  C  C143  1  0.50000000  0.80896486  0.94477684  1
  H  H144  1  0.50000000  0.86919594  0.50727684  1
  H  H145  1  0.50000000  0.86919594  0.63227684  1
  H  H146  1  0.50000000  0.86919594  0.75727684  1
  H  H147  1  0.50000000  0.86919594  0.88227684  1
  H  H148  1  0.50000000  0.13080406  0.50727684  1
  H  H149  1  0.50000000  0.13080406  0.63227684  1
  H  H150  1  0.50000000  0.13080406  0.75727684  1
  H  H151  1  0.50000000  0.13080406  0.88227684  1
  H  H152  1  0.50000000  0.81449911  0.45933053  1
  H  H153  1  0.50000000  0.18550089  0.45933053  1
  H  H154  1  0.50000000  0.17280286  0.99272316  1
  H  H155  1  0.50000000  0.20210364  0.06977684  1
  H  H156  1  0.50000000  0.20210364  0.19477684  1
  H  H157  1  0.50000000  0.20210364  0.31977684  1
  H  H158  1  0.50000000  0.20210364  0.44477684  1
  H  H159  1  0.50000000  0.79789636  0.06977684  1
  H  H160  1  0.50000000  0.79789636  0.19477684  1
  H  H161  1  0.50000000  0.79789636  0.31977684  1
  H  H162  1  0.50000000  0.79789636  0.44477684  1
  H  H163  1  0.50000000  0.82719714  0.99272316  1
