# generated using pymatgen
data_H9C28
_symmetry_space_group_name_H-M   'P 1'
_cell_length_a   10.00000000
_cell_length_b   17.10430000
_cell_length_c   19.68801368
_cell_angle_alpha   90.00000000
_cell_angle_beta   90.00000000
_cell_angle_gamma   90.00000000
_symmetry_Int_Tables_number   1
_chemical_formula_structural   H9C28
_chemical_formula_sum   'H18 C56'
_cell_volume   3367.49692447
_cell_formula_units_Z   2
loop_
 _symmetry_equiv_pos_site_id
 _symmetry_equiv_pos_as_xyz
  1  'x, y, z'
loop_
 _atom_site_type_symbol
 _atom_site_label
 _atom_site_symmetry_multiplicity
 _atom_site_fract_x
 _atom_site_fract_y
 _atom_site_fract_z
 _atom_site_occupancy
  C  C0  1  0.50000000  0.70767585  0.50727684  1
  C  C1  1  0.50000000  0.70767585  0.63227684  1
  C  C2  1  0.50000000  0.70767585  0.75727684  1
  C  C3  1  0.50000000  0.70767585  0.88227684  1
  C  C4  1  0.50000000  0.29232415  0.00727684  1
  C  C5  1  0.50000000  0.29232415  0.13227684  1
  C  C6  1  0.50000000  0.29232415  0.25727684  1
  C  C7  1  0.50000000  0.29232415  0.38227684  1
  C  C8  1  0.50000000  0.29232415  0.50727684  1
  C  C9  1  0.50000000  0.29232415  0.63227684  1
  C  C10  1  0.50000000  0.29232415  0.75727684  1
  C  C11  1  0.50000000  0.29232415  0.88227684  1
  C  C12  1  0.50000000  0.33385932  0.06977684  1
  C  C13  1  0.50000000  0.33385932  0.19477684  1
  C  C14  1  0.50000000  0.33385932  0.31977684  1
  C  C15  1  0.50000000  0.33385932  0.44477684  1
  C  C16  1  0.50000000  0.33385932  0.56977684  1
  C  C17  1  0.50000000  0.33385932  0.69477684  1
  C  C18  1  0.50000000  0.33385932  0.81977684  1
  C  C19  1  0.50000000  0.33385932  0.94477684  1
  C  C20  1  0.50000000  0.41692966  0.06977684  1
  C  C21  1  0.50000000  0.41692966  0.19477684  1
  C  C22  1  0.50000000  0.41692966  0.31977684  1
  C  C23  1  0.50000000  0.41692966  0.44477684  1
  C  C24  1  0.50000000  0.41692966  0.56977684  1
  C  C25  1  0.50000000  0.41692966  0.69477684  1
  C  C26  1  0.50000000  0.41692966  0.81977684  1
  C  C27  1  0.50000000  0.41692966  0.94477684  1
  C  C28  1  0.50000000  0.45846483  0.00727684  1
  C  C29  1  0.50000000  0.45846483  0.13227684  1
  C  C30  1  0.50000000  0.45846483  0.25727684  1
  C  C31  1  0.50000000  0.45846483  0.38227684  1
  C  C32  1  0.50000000  0.45846483  0.50727684  1
  C  C33  1  0.50000000  0.45846483  0.63227684  1
  C  C34  1  0.50000000  0.45846483  0.75727684  1
  C  C35  1  0.50000000  0.45846483  0.88227684  1
  C  C36  1  0.50000000  0.54153517  0.00727684  1
  C  C37  1  0.50000000  0.54153517  0.13227684  1
  C  C38  1  0.50000000  0.54153517  0.25727684  1
  C  C39  1  0.50000000  0.54153517  0.38227684  1
  C  C40  1  0.50000000  0.54153517  0.50727684  1
  C  C41  1  0.50000000  0.54153517  0.63227684  1
  C  C42  1  0.50000000  0.54153517  0.75727684  1
  C  C43  1  0.50000000  0.54153517  0.88227684  1
  C  C44  1  0.50000000  0.58307034  0.06977684  1
  C  C45  1  0.50000000  0.58307034  0.19477684  1
  C  C46  1  0.50000000  0.58307034  0.31977684  1
  C  C47  1  0.50000000  0.58307034  0.44477684  1
  C  C48  1  0.50000000  0.58307034  0.56977684  1
  C  C49  1  0.50000000  0.58307034  0.69477684  1
  C  C50  1  0.50000000  0.58307034  0.81977684  1
  C  C51  1  0.50000000  0.58307034  0.94477684  1
  C  C52  1  0.50000000  0.66614068  0.56977684  1
  C  C53  1  0.50000000  0.66614068  0.69477684  1
  C  C54  1  0.50000000  0.66614068  0.81977684  1
  C  C55  1  0.50000000  0.66614068  0.94477684  1
  H  H56  1  0.50000000  0.77140251  0.50727684  1
  H  H57  1  0.50000000  0.77140251  0.63227684  1
  H  H58  1  0.50000000  0.77140251  0.75727684  1
  H  H59  1  0.50000000  0.77140251  0.88227684  1
  H  H60  1  0.50000000  0.22859749  0.00727684  1
  H  H61  1  0.50000000  0.22859749  0.13227684  1
  H  H62  1  0.50000000  0.22859749  0.25727684  1
  H  H63  1  0.50000000  0.22859749  0.38227684  1
  H  H64  1  0.50000000  0.22859749  0.50727684  1
  H  H65  1  0.50000000  0.22859749  0.63227684  1
  H  H66  1  0.50000000  0.22859749  0.75727684  1
  H  H67  1  0.50000000  0.22859749  0.88227684  1
  H  H68  1  0.50000000  0.67581252  0.45933053  1
  H  H69  1  0.50000000  0.64679700  0.06977684  1
  H  H70  1  0.50000000  0.64679700  0.19477684  1
  H  H71  1  0.50000000  0.64679700  0.31977684  1
  H  H72  1  0.50000000  0.64679700  0.44477684  1
  H  H73  1  0.50000000  0.69800401  0.99272316  1
