# generated using pymatgen
data_HC4
_symmetry_space_group_name_H-M   'P 1'
_cell_length_a   10.00000000
_cell_length_b   25.62946000
_cell_length_c   19.68801368
_cell_angle_alpha   90.00000000
_cell_angle_beta   90.00000000
_cell_angle_gamma   90.00000000
_symmetry_Int_Tables_number   1
_chemical_formula_structural   HC4
_chemical_formula_sum   'H24 C96'
_cell_volume   5045.93159182
_cell_formula_units_Z   24
loop_
 _symmetry_equiv_pos_site_id
 _symmetry_equiv_pos_as_xyz
  1  'x, y, z'
loop_
 _atom_site_type_symbol
 _atom_site_label
 _atom_site_symmetry_multiplicity
 _atom_site_fract_x
 _atom_site_fract_y
 _atom_site_fract_z
 _atom_site_occupancy
  C  C0  1  0.50000000  0.80491200  0.50727684  1
  C  C1  1  0.50000000  0.80491200  0.63227684  1
  C  C2  1  0.50000000  0.80491200  0.75727684  1
  C  C3  1  0.50000000  0.80491200  0.88227684  1
  C  C4  1  0.50000000  0.19508800  0.00727684  1
  C  C5  1  0.50000000  0.19508800  0.13227684  1
  C  C6  1  0.50000000  0.19508800  0.25727684  1
  C  C7  1  0.50000000  0.19508800  0.38227684  1
  C  C8  1  0.50000000  0.19508800  0.50727684  1
  C  C9  1  0.50000000  0.19508800  0.63227684  1
  C  C10  1  0.50000000  0.19508800  0.75727684  1
  C  C11  1  0.50000000  0.19508800  0.88227684  1
  C  C12  1  0.50000000  0.22280727  0.06977684  1
  C  C13  1  0.50000000  0.22280727  0.19477684  1
  C  C14  1  0.50000000  0.22280727  0.31977684  1
  C  C15  1  0.50000000  0.22280727  0.44477684  1
  C  C16  1  0.50000000  0.22280727  0.56977684  1
  C  C17  1  0.50000000  0.22280727  0.69477684  1
  C  C18  1  0.50000000  0.22280727  0.81977684  1
  C  C19  1  0.50000000  0.22280727  0.94477684  1
  C  C20  1  0.50000000  0.27824582  0.06977684  1
  C  C21  1  0.50000000  0.27824582  0.19477684  1
  C  C22  1  0.50000000  0.27824582  0.31977684  1
  C  C23  1  0.50000000  0.27824582  0.44477684  1
  C  C24  1  0.50000000  0.27824582  0.56977684  1
  C  C25  1  0.50000000  0.27824582  0.69477684  1
  C  C26  1  0.50000000  0.27824582  0.81977684  1
  C  C27  1  0.50000000  0.27824582  0.94477684  1
  C  C28  1  0.50000000  0.30596509  0.00727684  1
  C  C29  1  0.50000000  0.30596509  0.13227684  1
  C  C30  1  0.50000000  0.30596509  0.25727684  1
  C  C31  1  0.50000000  0.30596509  0.38227684  1
  C  C32  1  0.50000000  0.30596509  0.50727684  1
  C  C33  1  0.50000000  0.30596509  0.63227684  1
  C  C34  1  0.50000000  0.30596509  0.75727684  1
  C  C35  1  0.50000000  0.30596509  0.88227684  1
  C  C36  1  0.50000000  0.36140363  0.00727684  1
  C  C37  1  0.50000000  0.36140363  0.13227684  1
  C  C38  1  0.50000000  0.36140363  0.25727684  1
  C  C39  1  0.50000000  0.36140363  0.38227684  1
  C  C40  1  0.50000000  0.36140363  0.50727684  1
  C  C41  1  0.50000000  0.36140363  0.63227684  1
  C  C42  1  0.50000000  0.36140363  0.75727684  1
  C  C43  1  0.50000000  0.36140363  0.88227684  1
  C  C44  1  0.50000000  0.38912291  0.06977684  1
  C  C45  1  0.50000000  0.38912291  0.19477684  1
  C  C46  1  0.50000000  0.38912291  0.31977684  1
  C  C47  1  0.50000000  0.38912291  0.44477684  1
  C  C48  1  0.50000000  0.38912291  0.56977684  1
  C  C49  1  0.50000000  0.38912291  0.69477684  1
  C  C50  1  0.50000000  0.38912291  0.81977684  1
  C  C51  1  0.50000000  0.38912291  0.94477684  1
  C  C52  1  0.50000000  0.44456145  0.06977684  1
  C  C53  1  0.50000000  0.44456145  0.19477684  1
  C  C54  1  0.50000000  0.44456145  0.31977684  1
  C  C55  1  0.50000000  0.44456145  0.44477684  1
  C  C56  1  0.50000000  0.44456145  0.56977684  1
  C  C57  1  0.50000000  0.44456145  0.69477684  1
  C  C58  1  0.50000000  0.44456145  0.81977684  1
  C  C59  1  0.50000000  0.44456145  0.94477684  1
  C  C60  1  0.50000000  0.47228073  0.00727684  1
  C  C61  1  0.50000000  0.47228073  0.13227684  1
  C  C62  1  0.50000000  0.47228073  0.25727684  1
  C  C63  1  0.50000000  0.47228073  0.38227684  1
  C  C64  1  0.50000000  0.47228073  0.50727684  1
  C  C65  1  0.50000000  0.47228073  0.63227684  1
  C  C66  1  0.50000000  0.47228073  0.75727684  1
  C  C67  1  0.50000000  0.47228073  0.88227684  1
  C  C68  1  0.50000000  0.52771927  0.50727684  1
  C  C69  1  0.50000000  0.52771927  0.63227684  1
  C  C70  1  0.50000000  0.52771927  0.75727684  1
  C  C71  1  0.50000000  0.52771927  0.88227684  1
  C  C72  1  0.50000000  0.55543855  0.56977684  1
  C  C73  1  0.50000000  0.55543855  0.69477684  1
  C  C74  1  0.50000000  0.55543855  0.81977684  1
  C  C75  1  0.50000000  0.55543855  0.94477684  1
  C  C76  1  0.50000000  0.61087709  0.56977684  1
  C  C77  1  0.50000000  0.61087709  0.69477684  1
  C  C78  1  0.50000000  0.61087709  0.81977684  1
  C  C79  1  0.50000000  0.61087709  0.94477684  1
  C  C80  1  0.50000000  0.63859637  0.50727684  1
  C  C81  1  0.50000000  0.63859637  0.63227684  1
  C  C82  1  0.50000000  0.63859637  0.75727684  1
  C  C83  1  0.50000000  0.63859637  0.88227684  1
  C  C84  1  0.50000000  0.69403491  0.50727684  1
  C  C85  1  0.50000000  0.69403491  0.63227684  1
  C  C86  1  0.50000000  0.69403491  0.75727684  1
  C  C87  1  0.50000000  0.69403491  0.88227684  1
  C  C88  1  0.50000000  0.72175418  0.56977684  1
  C  C89  1  0.50000000  0.72175418  0.69477684  1
  C  C90  1  0.50000000  0.72175418  0.81977684  1
  C  C91  1  0.50000000  0.72175418  0.94477684  1
  C  C92  1  0.50000000  0.77719273  0.56977684  1
  C  C93  1  0.50000000  0.77719273  0.69477684  1
  C  C94  1  0.50000000  0.77719273  0.81977684  1
  C  C95  1  0.50000000  0.77719273  0.94477684  1
  H  H96  1  0.50000000  0.84744118  0.50727684  1
  H  H97  1  0.50000000  0.84744118  0.63227684  1
  H  H98  1  0.50000000  0.84744118  0.75727684  1
  H  H99  1  0.50000000  0.84744118  0.88227684  1
  H  H100  1  0.50000000  0.15255882  0.00727684  1
  H  H101  1  0.50000000  0.15255882  0.13227684  1
  H  H102  1  0.50000000  0.15255882  0.25727684  1
  H  H103  1  0.50000000  0.15255882  0.38227684  1
  H  H104  1  0.50000000  0.15255882  0.50727684  1
  H  H105  1  0.50000000  0.15255882  0.63227684  1
  H  H106  1  0.50000000  0.15255882  0.75727684  1
  H  H107  1  0.50000000  0.15255882  0.88227684  1
  H  H108  1  0.50000000  0.78364741  0.45933053  1
  H  H109  1  0.50000000  0.51480991  0.00727684  1
  H  H110  1  0.50000000  0.51480991  0.13227684  1
  H  H111  1  0.50000000  0.51480991  0.25727684  1
  H  H112  1  0.50000000  0.51480991  0.38227684  1
  H  H113  1  0.50000000  0.54898386  0.45933053  1
  H  H114  1  0.50000000  0.53417396  0.99272316  1
  H  H115  1  0.50000000  0.63214168  0.99272316  1
  H  H116  1  0.50000000  0.61733178  0.45933053  1
  H  H117  1  0.50000000  0.71529950  0.45933053  1
  H  H118  1  0.50000000  0.70048959  0.99272316  1
  H  H119  1  0.50000000  0.79845732  0.99272316  1
