# generated using pymatgen
data_H7C20
_symmetry_space_group_name_H-M   'P 1'
_cell_length_a   10.00000000
_cell_length_b   25.62946000
_cell_length_c   19.68801368
_cell_angle_alpha   90.00000000
_cell_angle_beta   90.00000000
_cell_angle_gamma   90.00000000
_symmetry_Int_Tables_number   1
_chemical_formula_structural   H7C20
_chemical_formula_sum   'H28 C80'
_cell_volume   5045.93159182
_cell_formula_units_Z   4
loop_
 _symmetry_equiv_pos_site_id
 _symmetry_equiv_pos_as_xyz
  1  'x, y, z'
loop_
 _atom_site_type_symbol
 _atom_site_label
 _atom_site_symmetry_multiplicity
 _atom_site_fract_x
 _atom_site_fract_y
 _atom_site_fract_z
 _atom_site_occupancy
  C  C0  1  0.50000000  0.80491200  0.53852684  1
  C  C1  1  0.50000000  0.80491200  0.66352684  1
  C  C2  1  0.50000000  0.80491200  0.78852684  1
  C  C3  1  0.50000000  0.80491200  0.91352684  1
  C  C4  1  0.50000000  0.19508800  0.53852684  1
  C  C5  1  0.50000000  0.19508800  0.66352684  1
  C  C6  1  0.50000000  0.19508800  0.78852684  1
  C  C7  1  0.50000000  0.19508800  0.91352684  1
  C  C8  1  0.50000000  0.22280727  0.60102684  1
  C  C9  1  0.50000000  0.22280727  0.72602684  1
  C  C10  1  0.50000000  0.22280727  0.85102684  1
  C  C11  1  0.50000000  0.22280727  0.97602684  1
  C  C12  1  0.50000000  0.27824582  0.10102684  1
  C  C13  1  0.50000000  0.27824582  0.22602684  1
  C  C14  1  0.50000000  0.27824582  0.35102684  1
  C  C15  1  0.50000000  0.27824582  0.47602684  1
  C  C16  1  0.50000000  0.27824582  0.60102684  1
  C  C17  1  0.50000000  0.27824582  0.72602684  1
  C  C18  1  0.50000000  0.27824582  0.85102684  1
  C  C19  1  0.50000000  0.27824582  0.97602684  1
  C  C20  1  0.50000000  0.30596509  0.03852684  1
  C  C21  1  0.50000000  0.30596509  0.16352684  1
  C  C22  1  0.50000000  0.30596509  0.28852684  1
  C  C23  1  0.50000000  0.30596509  0.41352684  1
  C  C24  1  0.50000000  0.30596509  0.53852684  1
  C  C25  1  0.50000000  0.30596509  0.66352684  1
  C  C26  1  0.50000000  0.30596509  0.78852684  1
  C  C27  1  0.50000000  0.30596509  0.91352684  1
  C  C28  1  0.50000000  0.36140363  0.03852684  1
  C  C29  1  0.50000000  0.36140363  0.16352684  1
  C  C30  1  0.50000000  0.36140363  0.28852684  1
  C  C31  1  0.50000000  0.36140363  0.41352684  1
  C  C32  1  0.50000000  0.36140363  0.53852684  1
  C  C33  1  0.50000000  0.36140363  0.66352684  1
  C  C34  1  0.50000000  0.36140363  0.78852684  1
  C  C35  1  0.50000000  0.36140363  0.91352684  1
  C  C36  1  0.50000000  0.38912291  0.10102684  1
  C  C37  1  0.50000000  0.38912291  0.22602684  1
  C  C38  1  0.50000000  0.38912291  0.35102684  1
  C  C39  1  0.50000000  0.38912291  0.47602684  1
  C  C40  1  0.50000000  0.38912291  0.60102684  1
  C  C41  1  0.50000000  0.38912291  0.72602684  1
  C  C42  1  0.50000000  0.38912291  0.85102684  1
  C  C43  1  0.50000000  0.38912291  0.97602684  1
  C  C44  1  0.50000000  0.44456145  0.60102684  1
  C  C45  1  0.50000000  0.44456145  0.72602684  1
  C  C46  1  0.50000000  0.44456145  0.85102684  1
  C  C47  1  0.50000000  0.44456145  0.97602684  1
  C  C48  1  0.50000000  0.47228073  0.53852684  1
  C  C49  1  0.50000000  0.47228073  0.66352684  1
  C  C50  1  0.50000000  0.47228073  0.78852684  1
  C  C51  1  0.50000000  0.47228073  0.91352684  1
  C  C52  1  0.50000000  0.52771927  0.53852684  1
  C  C53  1  0.50000000  0.52771927  0.66352684  1
  C  C54  1  0.50000000  0.52771927  0.78852684  1
  C  C55  1  0.50000000  0.52771927  0.91352684  1
  C  C56  1  0.50000000  0.55543855  0.60102684  1
  C  C57  1  0.50000000  0.55543855  0.72602684  1
  C  C58  1  0.50000000  0.55543855  0.85102684  1
  C  C59  1  0.50000000  0.55543855  0.97602684  1
  C  C60  1  0.50000000  0.61087709  0.60102684  1
  C  C61  1  0.50000000  0.61087709  0.72602684  1
  C  C62  1  0.50000000  0.61087709  0.85102684  1
  C  C63  1  0.50000000  0.61087709  0.97602684  1
  C  C64  1  0.50000000  0.63859637  0.53852684  1
  C  C65  1  0.50000000  0.63859637  0.66352684  1
  C  C66  1  0.50000000  0.63859637  0.78852684  1
  C  C67  1  0.50000000  0.63859637  0.91352684  1
  C  C68  1  0.50000000  0.69403491  0.53852684  1
  C  C69  1  0.50000000  0.69403491  0.66352684  1
  C  C70  1  0.50000000  0.69403491  0.78852684  1
  C  C71  1  0.50000000  0.69403491  0.91352684  1
  C  C72  1  0.50000000  0.72175418  0.60102684  1
  C  C73  1  0.50000000  0.72175418  0.72602684  1
  C  C74  1  0.50000000  0.72175418  0.85102684  1
  C  C75  1  0.50000000  0.72175418  0.97602684  1
  C  C76  1  0.50000000  0.77719273  0.60102684  1
  C  C77  1  0.50000000  0.77719273  0.72602684  1
  C  C78  1  0.50000000  0.77719273  0.85102684  1
  C  C79  1  0.50000000  0.77719273  0.97602684  1
  H  H80  1  0.50000000  0.84744118  0.53852684  1
  H  H81  1  0.50000000  0.84744118  0.66352684  1
  H  H82  1  0.50000000  0.84744118  0.78852684  1
  H  H83  1  0.50000000  0.84744118  0.91352684  1
  H  H84  1  0.50000000  0.15255882  0.53852684  1
  H  H85  1  0.50000000  0.15255882  0.66352684  1
  H  H86  1  0.50000000  0.15255882  0.78852684  1
  H  H87  1  0.50000000  0.15255882  0.91352684  1
  H  H88  1  0.50000000  0.78364741  0.49058053  1
  H  H89  1  0.50000000  0.21635259  0.49058053  1
  H  H90  1  0.50000000  0.20154268  0.02397316  1
  H  H91  1  0.50000000  0.23571664  0.10102684  1
  H  H92  1  0.50000000  0.23571664  0.22602684  1
  H  H93  1  0.50000000  0.23571664  0.35102684  1
  H  H94  1  0.50000000  0.23571664  0.47602684  1
  H  H95  1  0.50000000  0.43165209  0.10102684  1
  H  H96  1  0.50000000  0.43165209  0.22602684  1
  H  H97  1  0.50000000  0.43165209  0.35102684  1
  H  H98  1  0.50000000  0.43165209  0.47602684  1
  H  H99  1  0.50000000  0.46582604  0.02397316  1
  H  H100  1  0.50000000  0.45101614  0.49058053  1
  H  H101  1  0.50000000  0.54898386  0.49058053  1
  H  H102  1  0.50000000  0.53417396  0.02397316  1
  H  H103  1  0.50000000  0.63214168  0.02397316  1
  H  H104  1  0.50000000  0.61733178  0.49058053  1
  H  H105  1  0.50000000  0.71529950  0.49058053  1
  H  H106  1  0.50000000  0.70048959  0.02397316  1
  H  H107  1  0.50000000  0.79845732  0.02397316  1
