# generated using pymatgen
data_H7C24
_symmetry_space_group_name_H-M   'P 1'
_cell_length_a   10.00000000
_cell_length_b   29.89204000
_cell_length_c   19.68801368
_cell_angle_alpha   90.00000000
_cell_angle_beta   90.00000000
_cell_angle_gamma   90.00000000
_symmetry_Int_Tables_number   1
_chemical_formula_structural   H7C24
_chemical_formula_sum   'H28 C96'
_cell_volume   5885.14892549
_cell_formula_units_Z   4
loop_
 _symmetry_equiv_pos_site_id
 _symmetry_equiv_pos_as_xyz
  1  'x, y, z'
loop_
 _atom_site_type_symbol
 _atom_site_label
 _atom_site_symmetry_multiplicity
 _atom_site_fract_x
 _atom_site_fract_y
 _atom_site_fract_z
 _atom_site_occupancy
  C  C0  1  0.50000000  0.20291840  0.03852684  1
  C  C1  1  0.50000000  0.20291840  0.16352684  1
  C  C2  1  0.50000000  0.20291840  0.28852684  1
  C  C3  1  0.50000000  0.20291840  0.41352684  1
  C  C4  1  0.50000000  0.20291840  0.53852684  1
  C  C5  1  0.50000000  0.20291840  0.66352684  1
  C  C6  1  0.50000000  0.20291840  0.78852684  1
  C  C7  1  0.50000000  0.20291840  0.91352684  1
  C  C8  1  0.50000000  0.22668493  0.10102684  1
  C  C9  1  0.50000000  0.22668493  0.22602684  1
  C  C10  1  0.50000000  0.22668493  0.35102684  1
  C  C11  1  0.50000000  0.22668493  0.47602684  1
  C  C12  1  0.50000000  0.22668493  0.60102684  1
  C  C13  1  0.50000000  0.22668493  0.72602684  1
  C  C14  1  0.50000000  0.22668493  0.85102684  1
  C  C15  1  0.50000000  0.22668493  0.97602684  1
  C  C16  1  0.50000000  0.27421799  0.10102684  1
  C  C17  1  0.50000000  0.27421799  0.22602684  1
  C  C18  1  0.50000000  0.27421799  0.35102684  1
  C  C19  1  0.50000000  0.27421799  0.47602684  1
  C  C20  1  0.50000000  0.27421799  0.60102684  1
  C  C21  1  0.50000000  0.27421799  0.72602684  1
  C  C22  1  0.50000000  0.27421799  0.85102684  1
  C  C23  1  0.50000000  0.27421799  0.97602684  1
  C  C24  1  0.50000000  0.29798451  0.03852684  1
  C  C25  1  0.50000000  0.29798451  0.16352684  1
  C  C26  1  0.50000000  0.29798451  0.28852684  1
  C  C27  1  0.50000000  0.29798451  0.41352684  1
  C  C28  1  0.50000000  0.29798451  0.53852684  1
  C  C29  1  0.50000000  0.29798451  0.66352684  1
  C  C30  1  0.50000000  0.29798451  0.78852684  1
  C  C31  1  0.50000000  0.29798451  0.91352684  1
  C  C32  1  0.50000000  0.34551757  0.03852684  1
  C  C33  1  0.50000000  0.34551757  0.16352684  1
  C  C34  1  0.50000000  0.34551757  0.28852684  1
  C  C35  1  0.50000000  0.34551757  0.41352684  1
  C  C36  1  0.50000000  0.34551757  0.53852684  1
  C  C37  1  0.50000000  0.34551757  0.66352684  1
  C  C38  1  0.50000000  0.34551757  0.78852684  1
  C  C39  1  0.50000000  0.34551757  0.91352684  1
  C  C40  1  0.50000000  0.36928410  0.10102684  1
  C  C41  1  0.50000000  0.36928410  0.22602684  1
  C  C42  1  0.50000000  0.36928410  0.35102684  1
  C  C43  1  0.50000000  0.36928410  0.47602684  1
  C  C44  1  0.50000000  0.36928410  0.60102684  1
  C  C45  1  0.50000000  0.36928410  0.72602684  1
  C  C46  1  0.50000000  0.36928410  0.85102684  1
  C  C47  1  0.50000000  0.36928410  0.97602684  1
  C  C48  1  0.50000000  0.41681715  0.60102684  1
  C  C49  1  0.50000000  0.41681715  0.72602684  1
  C  C50  1  0.50000000  0.41681715  0.85102684  1
  C  C51  1  0.50000000  0.41681715  0.97602684  1
  C  C52  1  0.50000000  0.44058368  0.53852684  1
  C  C53  1  0.50000000  0.44058368  0.66352684  1
  C  C54  1  0.50000000  0.44058368  0.78852684  1
  C  C55  1  0.50000000  0.44058368  0.91352684  1
  C  C56  1  0.50000000  0.48811674  0.53852684  1
  C  C57  1  0.50000000  0.48811674  0.66352684  1
  C  C58  1  0.50000000  0.48811674  0.78852684  1
  C  C59  1  0.50000000  0.48811674  0.91352684  1
  C  C60  1  0.50000000  0.51188326  0.60102684  1
  C  C61  1  0.50000000  0.51188326  0.72602684  1
  C  C62  1  0.50000000  0.51188326  0.85102684  1
  C  C63  1  0.50000000  0.51188326  0.97602684  1
  C  C64  1  0.50000000  0.55941632  0.60102684  1
  C  C65  1  0.50000000  0.55941632  0.72602684  1
  C  C66  1  0.50000000  0.55941632  0.85102684  1
  C  C67  1  0.50000000  0.55941632  0.97602684  1
  C  C68  1  0.50000000  0.58318285  0.53852684  1
  C  C69  1  0.50000000  0.58318285  0.66352684  1
  C  C70  1  0.50000000  0.58318285  0.78852684  1
  C  C71  1  0.50000000  0.58318285  0.91352684  1
  C  C72  1  0.50000000  0.63071590  0.53852684  1
  C  C73  1  0.50000000  0.63071590  0.66352684  1
  C  C74  1  0.50000000  0.63071590  0.78852684  1
  C  C75  1  0.50000000  0.63071590  0.91352684  1
  C  C76  1  0.50000000  0.65448243  0.60102684  1
  C  C77  1  0.50000000  0.65448243  0.72602684  1
  C  C78  1  0.50000000  0.65448243  0.85102684  1
  C  C79  1  0.50000000  0.65448243  0.97602684  1
  C  C80  1  0.50000000  0.70201549  0.60102684  1
  C  C81  1  0.50000000  0.70201549  0.72602684  1
  C  C82  1  0.50000000  0.70201549  0.85102684  1
  C  C83  1  0.50000000  0.70201549  0.97602684  1
  C  C84  1  0.50000000  0.72578201  0.53852684  1
  C  C85  1  0.50000000  0.72578201  0.66352684  1
  C  C86  1  0.50000000  0.72578201  0.78852684  1
  C  C87  1  0.50000000  0.72578201  0.91352684  1
  C  C88  1  0.50000000  0.77331507  0.53852684  1
  C  C89  1  0.50000000  0.77331507  0.66352684  1
  C  C90  1  0.50000000  0.77331507  0.78852684  1
  C  C91  1  0.50000000  0.77331507  0.91352684  1
  C  C92  1  0.50000000  0.79708160  0.60102684  1
  C  C93  1  0.50000000  0.79708160  0.72602684  1
  C  C94  1  0.50000000  0.79708160  0.85102684  1
  C  C95  1  0.50000000  0.79708160  0.97602684  1
  H  H96  1  0.50000000  0.16645385  0.03852684  1
  H  H97  1  0.50000000  0.16645385  0.16352684  1
  H  H98  1  0.50000000  0.16645385  0.28852684  1
  H  H99  1  0.50000000  0.16645385  0.41352684  1
  H  H100  1  0.50000000  0.16645385  0.53852684  1
  H  H101  1  0.50000000  0.16645385  0.66352684  1
  H  H102  1  0.50000000  0.16645385  0.78852684  1
  H  H103  1  0.50000000  0.16645385  0.91352684  1
  H  H104  1  0.50000000  0.83354615  0.60102684  1
  H  H105  1  0.50000000  0.83354615  0.72602684  1
  H  H106  1  0.50000000  0.83354615  0.85102684  1
  H  H107  1  0.50000000  0.83354615  0.97602684  1
  H  H108  1  0.50000000  0.40574865  0.10102684  1
  H  H109  1  0.50000000  0.40574865  0.22602684  1
  H  H110  1  0.50000000  0.40574865  0.35102684  1
  H  H111  1  0.50000000  0.40574865  0.47602684  1
  H  H112  1  0.50000000  0.43504943  0.02397316  1
  H  H113  1  0.50000000  0.42235140  0.49058053  1
  H  H114  1  0.50000000  0.50634901  0.49058053  1
  H  H115  1  0.50000000  0.49365099  0.02397316  1
  H  H116  1  0.50000000  0.57764860  0.02397316  1
  H  H117  1  0.50000000  0.56495057  0.49058053  1
  H  H118  1  0.50000000  0.64894818  0.49058053  1
  H  H119  1  0.50000000  0.63625015  0.02397316  1
  H  H120  1  0.50000000  0.72024776  0.02397316  1
  H  H121  1  0.50000000  0.70754974  0.49058053  1
  H  H122  1  0.50000000  0.79154735  0.49058053  1
  H  H123  1  0.50000000  0.77884932  0.02397316  1
