# generated using pymatgen
data_H13C36
_symmetry_space_group_name_H-M   'P 1'
_cell_length_a   10.00000000
_cell_length_b   25.62946000
_cell_length_c   19.68801368
_cell_angle_alpha   90.00000000
_cell_angle_beta   90.00000000
_cell_angle_gamma   90.00000000
_symmetry_Int_Tables_number   1
_chemical_formula_structural   H13C36
_chemical_formula_sum   'H26 C72'
_cell_volume   5045.93159182
_cell_formula_units_Z   2
loop_
 _symmetry_equiv_pos_site_id
 _symmetry_equiv_pos_as_xyz
  1  'x, y, z'
loop_
 _atom_site_type_symbol
 _atom_site_label
 _atom_site_symmetry_multiplicity
 _atom_site_fract_x
 _atom_site_fract_y
 _atom_site_fract_z
 _atom_site_occupancy
  C  C0  1  0.50000000  0.23666691  0.53125000  1
  C  C1  1  0.50000000  0.23666691  0.65625000  1
  C  C2  1  0.50000000  0.23666691  0.78125000  1
  C  C3  1  0.50000000  0.23666691  0.90625000  1
  C  C4  1  0.50000000  0.26438618  0.59375000  1
  C  C5  1  0.50000000  0.26438618  0.71875000  1
  C  C6  1  0.50000000  0.26438618  0.84375000  1
  C  C7  1  0.50000000  0.26438618  0.96875000  1
  C  C8  1  0.50000000  0.31982473  0.59375000  1
  C  C9  1  0.50000000  0.31982473  0.71875000  1
  C  C10  1  0.50000000  0.31982473  0.84375000  1
  C  C11  1  0.50000000  0.31982473  0.96875000  1
  C  C12  1  0.50000000  0.34754400  0.53125000  1
  C  C13  1  0.50000000  0.34754400  0.65625000  1
  C  C14  1  0.50000000  0.34754400  0.78125000  1
  C  C15  1  0.50000000  0.34754400  0.90625000  1
  C  C16  1  0.50000000  0.40298254  0.53125000  1
  C  C17  1  0.50000000  0.40298254  0.65625000  1
  C  C18  1  0.50000000  0.40298254  0.78125000  1
  C  C19  1  0.50000000  0.40298254  0.90625000  1
  C  C20  1  0.50000000  0.43070182  0.59375000  1
  C  C21  1  0.50000000  0.43070182  0.71875000  1
  C  C22  1  0.50000000  0.43070182  0.84375000  1
  C  C23  1  0.50000000  0.43070182  0.96875000  1
  C  C24  1  0.50000000  0.48614036  0.59375000  1
  C  C25  1  0.50000000  0.48614036  0.71875000  1
  C  C26  1  0.50000000  0.48614036  0.84375000  1
  C  C27  1  0.50000000  0.48614036  0.96875000  1
  C  C28  1  0.50000000  0.51385964  0.53125000  1
  C  C29  1  0.50000000  0.51385964  0.65625000  1
  C  C30  1  0.50000000  0.51385964  0.78125000  1
  C  C31  1  0.50000000  0.51385964  0.90625000  1
  C  C32  1  0.50000000  0.56929818  0.03125000  1
  C  C33  1  0.50000000  0.56929818  0.15625000  1
  C  C34  1  0.50000000  0.56929818  0.28125000  1
  C  C35  1  0.50000000  0.56929818  0.40625000  1
  C  C36  1  0.50000000  0.56929818  0.53125000  1
  C  C37  1  0.50000000  0.56929818  0.65625000  1
  C  C38  1  0.50000000  0.56929818  0.78125000  1
  C  C39  1  0.50000000  0.56929818  0.90625000  1
  C  C40  1  0.50000000  0.59701746  0.09375000  1
  C  C41  1  0.50000000  0.59701746  0.21875000  1
  C  C42  1  0.50000000  0.59701746  0.34375000  1
  C  C43  1  0.50000000  0.59701746  0.46875000  1
  C  C44  1  0.50000000  0.59701746  0.59375000  1
  C  C45  1  0.50000000  0.59701746  0.71875000  1
  C  C46  1  0.50000000  0.59701746  0.84375000  1
  C  C47  1  0.50000000  0.59701746  0.96875000  1
  C  C48  1  0.50000000  0.65245600  0.09375000  1
  C  C49  1  0.50000000  0.65245600  0.21875000  1
  C  C50  1  0.50000000  0.65245600  0.34375000  1
  C  C51  1  0.50000000  0.65245600  0.46875000  1
  C  C52  1  0.50000000  0.65245600  0.59375000  1
  C  C53  1  0.50000000  0.65245600  0.71875000  1
  C  C54  1  0.50000000  0.65245600  0.84375000  1
  C  C55  1  0.50000000  0.65245600  0.96875000  1
  C  C56  1  0.50000000  0.68017527  0.03125000  1
  C  C57  1  0.50000000  0.68017527  0.15625000  1
  C  C58  1  0.50000000  0.68017527  0.28125000  1
  C  C59  1  0.50000000  0.68017527  0.40625000  1
  C  C60  1  0.50000000  0.68017527  0.53125000  1
  C  C61  1  0.50000000  0.68017527  0.65625000  1
  C  C62  1  0.50000000  0.68017527  0.78125000  1
  C  C63  1  0.50000000  0.68017527  0.90625000  1
  C  C64  1  0.50000000  0.73561382  0.53125000  1
  C  C65  1  0.50000000  0.73561382  0.65625000  1
  C  C66  1  0.50000000  0.73561382  0.78125000  1
  C  C67  1  0.50000000  0.73561382  0.90625000  1
  C  C68  1  0.50000000  0.76333309  0.59375000  1
  C  C69  1  0.50000000  0.76333309  0.71875000  1
  C  C70  1  0.50000000  0.76333309  0.84375000  1
  C  C71  1  0.50000000  0.76333309  0.96875000  1
  H  H72  1  0.50000000  0.19413773  0.53125000  1
  H  H73  1  0.50000000  0.19413773  0.65625000  1
  H  H74  1  0.50000000  0.19413773  0.78125000  1
  H  H75  1  0.50000000  0.19413773  0.90625000  1
  H  H76  1  0.50000000  0.80586227  0.59375000  1
  H  H77  1  0.50000000  0.80586227  0.71875000  1
  H  H78  1  0.50000000  0.80586227  0.84375000  1
  H  H79  1  0.50000000  0.80586227  0.96875000  1
  H  H80  1  0.50000000  0.25793150  0.48330369  1
  H  H81  1  0.50000000  0.24312159  0.01669631  1
  H  H82  1  0.50000000  0.34108932  0.01669631  1
  H  H83  1  0.50000000  0.32627941  0.48330369  1
  H  H84  1  0.50000000  0.42424713  0.48330369  1
  H  H85  1  0.50000000  0.40943723  0.01669631  1
  H  H86  1  0.50000000  0.50740495  0.01669631  1
  H  H87  1  0.50000000  0.49259505  0.48330369  1
  H  H88  1  0.50000000  0.52676900  0.03125000  1
  H  H89  1  0.50000000  0.52676900  0.15625000  1
  H  H90  1  0.50000000  0.52676900  0.28125000  1
  H  H91  1  0.50000000  0.52676900  0.40625000  1
  H  H92  1  0.50000000  0.72270446  0.03125000  1
  H  H93  1  0.50000000  0.72270446  0.15625000  1
  H  H94  1  0.50000000  0.72270446  0.28125000  1
  H  H95  1  0.50000000  0.72270446  0.40625000  1
  H  H96  1  0.50000000  0.75687841  0.48330369  1
  H  H97  1  0.50000000  0.74206850  0.01669631  1
