# generated using pymatgen
data_HC3
_symmetry_space_group_name_H-M   'P 1'
_cell_length_a   10.00000000
_cell_length_b   29.89204000
_cell_length_c   19.68801368
_cell_angle_alpha   90.00000000
_cell_angle_beta   90.00000000
_cell_angle_gamma   90.00000000
_symmetry_Int_Tables_number   1
_chemical_formula_structural   HC3
_chemical_formula_sum   'H32 C96'
_cell_volume   5885.14892549
_cell_formula_units_Z   32
loop_
 _symmetry_equiv_pos_site_id
 _symmetry_equiv_pos_as_xyz
  1  'x, y, z'
loop_
 _atom_site_type_symbol
 _atom_site_label
 _atom_site_symmetry_multiplicity
 _atom_site_fract_x
 _atom_site_fract_y
 _atom_site_fract_z
 _atom_site_occupancy
  C  C0  1  0.50000000  0.83273139  0.53125000  1
  C  C1  1  0.50000000  0.83273139  0.65625000  1
  C  C2  1  0.50000000  0.83273139  0.78125000  1
  C  C3  1  0.50000000  0.83273139  0.90625000  1
  C  C4  1  0.50000000  0.16726861  0.53125000  1
  C  C5  1  0.50000000  0.16726861  0.65625000  1
  C  C6  1  0.50000000  0.16726861  0.78125000  1
  C  C7  1  0.50000000  0.16726861  0.90625000  1
  C  C8  1  0.50000000  0.19103514  0.59375000  1
  C  C9  1  0.50000000  0.19103514  0.71875000  1
  C  C10  1  0.50000000  0.19103514  0.84375000  1
  C  C11  1  0.50000000  0.19103514  0.96875000  1
  C  C12  1  0.50000000  0.23856819  0.59375000  1
  C  C13  1  0.50000000  0.23856819  0.71875000  1
  C  C14  1  0.50000000  0.23856819  0.84375000  1
  C  C15  1  0.50000000  0.23856819  0.96875000  1
  C  C16  1  0.50000000  0.26233472  0.53125000  1
  C  C17  1  0.50000000  0.26233472  0.65625000  1
  C  C18  1  0.50000000  0.26233472  0.78125000  1
  C  C19  1  0.50000000  0.26233472  0.90625000  1
  C  C20  1  0.50000000  0.30986778  0.53125000  1
  C  C21  1  0.50000000  0.30986778  0.65625000  1
  C  C22  1  0.50000000  0.30986778  0.78125000  1
  C  C23  1  0.50000000  0.30986778  0.90625000  1
  C  C24  1  0.50000000  0.33363431  0.59375000  1
  C  C25  1  0.50000000  0.33363431  0.71875000  1
  C  C26  1  0.50000000  0.33363431  0.84375000  1
  C  C27  1  0.50000000  0.33363431  0.96875000  1
  C  C28  1  0.50000000  0.38116736  0.59375000  1
  C  C29  1  0.50000000  0.38116736  0.71875000  1
  C  C30  1  0.50000000  0.38116736  0.84375000  1
  C  C31  1  0.50000000  0.38116736  0.96875000  1
  C  C32  1  0.50000000  0.40493389  0.53125000  1
  C  C33  1  0.50000000  0.40493389  0.65625000  1
  C  C34  1  0.50000000  0.40493389  0.78125000  1
  C  C35  1  0.50000000  0.40493389  0.90625000  1
  C  C36  1  0.50000000  0.45246694  0.03125000  1
  C  C37  1  0.50000000  0.45246694  0.15625000  1
  C  C38  1  0.50000000  0.45246694  0.28125000  1
  C  C39  1  0.50000000  0.45246694  0.40625000  1
  C  C40  1  0.50000000  0.45246694  0.53125000  1
  C  C41  1  0.50000000  0.45246694  0.65625000  1
  C  C42  1  0.50000000  0.45246694  0.78125000  1
  C  C43  1  0.50000000  0.45246694  0.90625000  1
  C  C44  1  0.50000000  0.47623347  0.09375000  1
  C  C45  1  0.50000000  0.47623347  0.21875000  1
  C  C46  1  0.50000000  0.47623347  0.34375000  1
  C  C47  1  0.50000000  0.47623347  0.46875000  1
  C  C48  1  0.50000000  0.47623347  0.59375000  1
  C  C49  1  0.50000000  0.47623347  0.71875000  1
  C  C50  1  0.50000000  0.47623347  0.84375000  1
  C  C51  1  0.50000000  0.47623347  0.96875000  1
  C  C52  1  0.50000000  0.52376653  0.09375000  1
  C  C53  1  0.50000000  0.52376653  0.21875000  1
  C  C54  1  0.50000000  0.52376653  0.34375000  1
  C  C55  1  0.50000000  0.52376653  0.46875000  1
  C  C56  1  0.50000000  0.52376653  0.59375000  1
  C  C57  1  0.50000000  0.52376653  0.71875000  1
  C  C58  1  0.50000000  0.52376653  0.84375000  1
  C  C59  1  0.50000000  0.52376653  0.96875000  1
  C  C60  1  0.50000000  0.54753306  0.03125000  1
  C  C61  1  0.50000000  0.54753306  0.15625000  1
  C  C62  1  0.50000000  0.54753306  0.28125000  1
  C  C63  1  0.50000000  0.54753306  0.40625000  1
  C  C64  1  0.50000000  0.54753306  0.53125000  1
  C  C65  1  0.50000000  0.54753306  0.65625000  1
  C  C66  1  0.50000000  0.54753306  0.78125000  1
  C  C67  1  0.50000000  0.54753306  0.90625000  1
  C  C68  1  0.50000000  0.59506611  0.53125000  1
  C  C69  1  0.50000000  0.59506611  0.65625000  1
  C  C70  1  0.50000000  0.59506611  0.78125000  1
  C  C71  1  0.50000000  0.59506611  0.90625000  1
  C  C72  1  0.50000000  0.61883264  0.59375000  1
  C  C73  1  0.50000000  0.61883264  0.71875000  1
  C  C74  1  0.50000000  0.61883264  0.84375000  1
  C  C75  1  0.50000000  0.61883264  0.96875000  1
  C  C76  1  0.50000000  0.66636569  0.59375000  1
  C  C77  1  0.50000000  0.66636569  0.71875000  1
  C  C78  1  0.50000000  0.66636569  0.84375000  1
  C  C79  1  0.50000000  0.66636569  0.96875000  1
  C  C80  1  0.50000000  0.69013222  0.53125000  1
  C  C81  1  0.50000000  0.69013222  0.65625000  1
  C  C82  1  0.50000000  0.69013222  0.78125000  1
  C  C83  1  0.50000000  0.69013222  0.90625000  1
  C  C84  1  0.50000000  0.73766528  0.53125000  1
  C  C85  1  0.50000000  0.73766528  0.65625000  1
  C  C86  1  0.50000000  0.73766528  0.78125000  1
  C  C87  1  0.50000000  0.73766528  0.90625000  1
  C  C88  1  0.50000000  0.76143181  0.59375000  1
  C  C89  1  0.50000000  0.76143181  0.71875000  1
  C  C90  1  0.50000000  0.76143181  0.84375000  1
  C  C91  1  0.50000000  0.76143181  0.96875000  1
  C  C92  1  0.50000000  0.80896486  0.59375000  1
  C  C93  1  0.50000000  0.80896486  0.71875000  1
  C  C94  1  0.50000000  0.80896486  0.84375000  1
  C  C95  1  0.50000000  0.80896486  0.96875000  1
  H  H96  1  0.50000000  0.86919594  0.53125000  1
  H  H97  1  0.50000000  0.86919594  0.65625000  1
  H  H98  1  0.50000000  0.86919594  0.78125000  1
  H  H99  1  0.50000000  0.86919594  0.90625000  1
  H  H100  1  0.50000000  0.13080406  0.53125000  1
  H  H101  1  0.50000000  0.13080406  0.65625000  1
  H  H102  1  0.50000000  0.13080406  0.78125000  1
  H  H103  1  0.50000000  0.13080406  0.90625000  1
  H  H104  1  0.50000000  0.81449911  0.48330369  1
  H  H105  1  0.50000000  0.18550089  0.48330369  1
  H  H106  1  0.50000000  0.17280286  0.01669631  1
  H  H107  1  0.50000000  0.25680047  0.01669631  1
  H  H108  1  0.50000000  0.24410244  0.48330369  1
  H  H109  1  0.50000000  0.32810005  0.48330369  1
  H  H110  1  0.50000000  0.31540203  0.01669631  1
  H  H111  1  0.50000000  0.39939964  0.01669631  1
  H  H112  1  0.50000000  0.38670161  0.48330369  1
  H  H113  1  0.50000000  0.41600239  0.03125000  1
  H  H114  1  0.50000000  0.41600239  0.15625000  1
  H  H115  1  0.50000000  0.41600239  0.28125000  1
  H  H116  1  0.50000000  0.41600239  0.40625000  1
  H  H117  1  0.50000000  0.58399761  0.03125000  1
  H  H118  1  0.50000000  0.58399761  0.15625000  1
  H  H119  1  0.50000000  0.58399761  0.28125000  1
  H  H120  1  0.50000000  0.58399761  0.40625000  1
  H  H121  1  0.50000000  0.61329839  0.48330369  1
  H  H122  1  0.50000000  0.60060036  0.01669631  1
  H  H123  1  0.50000000  0.68459797  0.01669631  1
  H  H124  1  0.50000000  0.67189995  0.48330369  1
  H  H125  1  0.50000000  0.75589756  0.48330369  1
  H  H126  1  0.50000000  0.74319953  0.01669631  1
  H  H127  1  0.50000000  0.82719714  0.01669631  1
