# generated using pymatgen
data_H11C28
_symmetry_space_group_name_H-M   'P 1'
_cell_length_a   10.00000000
_cell_length_b   21.36688000
_cell_length_c   19.68801368
_cell_angle_alpha   90.00000000
_cell_angle_beta   90.00000000
_cell_angle_gamma   90.00000000
_symmetry_Int_Tables_number   1
_chemical_formula_structural   H11C28
_chemical_formula_sum   'H22 C56'
_cell_volume   4206.71425815
_cell_formula_units_Z   2
loop_
 _symmetry_equiv_pos_site_id
 _symmetry_equiv_pos_as_xyz
  1  'x, y, z'
loop_
 _atom_site_type_symbol
 _atom_site_label
 _atom_site_symmetry_multiplicity
 _atom_site_fract_x
 _atom_site_fract_y
 _atom_site_fract_z
 _atom_site_occupancy
  C  C0  1  0.50000000  0.28388071  0.03125000  1
  C  C1  1  0.50000000  0.28388071  0.15625000  1
  C  C2  1  0.50000000  0.28388071  0.28125000  1
  C  C3  1  0.50000000  0.28388071  0.40625000  1
  C  C4  1  0.50000000  0.28213705  0.53314234  1
  C  C5  1  0.50000000  0.28213705  0.65814234  1
  C  C6  1  0.50000000  0.28213705  0.78314234  1
  C  C7  1  0.50000000  0.28213705  0.90814234  1
  C  C8  1  0.50000000  0.31712983  0.09375000  1
  C  C9  1  0.50000000  0.31712983  0.21875000  1
  C  C10  1  0.50000000  0.31712983  0.34375000  1
  C  C11  1  0.50000000  0.31538617  0.47064234  1
  C  C12  1  0.50000000  0.31538617  0.59564234  1
  C  C13  1  0.50000000  0.31538617  0.72064234  1
  C  C14  1  0.50000000  0.31538617  0.84564234  1
  C  C15  1  0.50000000  0.31538617  0.97064234  1
  C  C16  1  0.50000000  0.38362807  0.09375000  1
  C  C17  1  0.50000000  0.38362807  0.21875000  1
  C  C18  1  0.50000000  0.38362807  0.34375000  1
  C  C19  1  0.50000000  0.38188442  0.47064234  1
  C  C20  1  0.50000000  0.38188442  0.59564234  1
  C  C21  1  0.50000000  0.38188442  0.72064234  1
  C  C22  1  0.50000000  0.38188442  0.84564234  1
  C  C23  1  0.50000000  0.38188442  0.97064234  1
  C  C24  1  0.50000000  0.41687719  0.03125000  1
  C  C25  1  0.50000000  0.41687719  0.15625000  1
  C  C26  1  0.50000000  0.41687719  0.28125000  1
  C  C27  1  0.50000000  0.41687719  0.40625000  1
  C  C28  1  0.50000000  0.41513354  0.53314234  1
  C  C29  1  0.50000000  0.41513354  0.65814234  1
  C  C30  1  0.50000000  0.41513354  0.78314234  1
  C  C31  1  0.50000000  0.41513354  0.90814234  1
  C  C32  1  0.50000000  0.48163178  0.53314234  1
  C  C33  1  0.50000000  0.48163178  0.65814234  1
  C  C34  1  0.50000000  0.48163178  0.78314234  1
  C  C35  1  0.50000000  0.48163178  0.90814234  1
  C  C36  1  0.50000000  0.51488091  0.59564234  1
  C  C37  1  0.50000000  0.51488091  0.72064234  1
  C  C38  1  0.50000000  0.51488091  0.84564234  1
  C  C39  1  0.50000000  0.51488091  0.97064234  1
  C  C40  1  0.50000000  0.58137915  0.59564234  1
  C  C41  1  0.50000000  0.58137915  0.72064234  1
  C  C42  1  0.50000000  0.58137915  0.84564234  1
  C  C43  1  0.50000000  0.58137915  0.97064234  1
  C  C44  1  0.50000000  0.61462827  0.53314234  1
  C  C45  1  0.50000000  0.61462827  0.65814234  1
  C  C46  1  0.50000000  0.61462827  0.78314234  1
  C  C47  1  0.50000000  0.61462827  0.90814234  1
  C  C48  1  0.50000000  0.68112652  0.53314234  1
  C  C49  1  0.50000000  0.68112652  0.65814234  1
  C  C50  1  0.50000000  0.68112652  0.78314234  1
  C  C51  1  0.50000000  0.68112652  0.90814234  1
  C  C52  1  0.50000000  0.71437564  0.59564234  1
  C  C53  1  0.50000000  0.71437564  0.72064234  1
  C  C54  1  0.50000000  0.71437564  0.84564234  1
  C  C55  1  0.50000000  0.71437564  0.97064234  1
  H  H56  1  0.50000000  0.23286718  0.03125000  1
  H  H57  1  0.50000000  0.23286718  0.15625000  1
  H  H58  1  0.50000000  0.23286718  0.28125000  1
  H  H59  1  0.50000000  0.23286718  0.40625000  1
  H  H60  1  0.50000000  0.23112352  0.53314234  1
  H  H61  1  0.50000000  0.23112352  0.65814234  1
  H  H62  1  0.50000000  0.23112352  0.78314234  1
  H  H63  1  0.50000000  0.23112352  0.90814234  1
  H  H64  1  0.50000000  0.76538917  0.59564234  1
  H  H65  1  0.50000000  0.76538917  0.72064234  1
  H  H66  1  0.50000000  0.76538917  0.84564234  1
  H  H67  1  0.50000000  0.76538917  0.97064234  1
  H  H68  1  0.50000000  0.46789072  0.03125000  1
  H  H69  1  0.50000000  0.46789072  0.15625000  1
  H  H70  1  0.50000000  0.46789072  0.28125000  1
  H  H71  1  0.50000000  0.46789072  0.40625000  1
  H  H72  1  0.50000000  0.50713855  0.48519603  1
  H  H73  1  0.50000000  0.49111780  0.01669631  1
  H  H74  1  0.50000000  0.60862957  0.01669631  1
  H  H75  1  0.50000000  0.58912151  0.48519603  1
  H  H76  1  0.50000000  0.70663328  0.48519603  1
  H  H77  1  0.50000000  0.69061253  0.01669631  1
