# generated using pymatgen
data_HC4
_symmetry_space_group_name_H-M   'P 1'
_cell_length_a   10.00000000
_cell_length_b   21.36688000
_cell_length_c   19.68801368
_cell_angle_alpha   90.00000000
_cell_angle_beta   90.00000000
_cell_angle_gamma   90.00000000
_symmetry_Int_Tables_number   1
_chemical_formula_structural   HC4
_chemical_formula_sum   'H20 C80'
_cell_volume   4206.71425815
_cell_formula_units_Z   20
loop_
 _symmetry_equiv_pos_site_id
 _symmetry_equiv_pos_as_xyz
  1  'x, y, z'
loop_
 _atom_site_type_symbol
 _atom_site_label
 _atom_site_symmetry_multiplicity
 _atom_site_fract_x
 _atom_site_fract_y
 _atom_site_fract_z
 _atom_site_occupancy
  C  C0  1  0.50000000  0.76599298  0.50727684  1
  C  C1  1  0.50000000  0.76599298  0.63227684  1
  C  C2  1  0.50000000  0.76599298  0.75727684  1
  C  C3  1  0.50000000  0.76599298  0.88227684  1
  C  C4  1  0.50000000  0.23400702  0.00727684  1
  C  C5  1  0.50000000  0.23400702  0.13227684  1
  C  C6  1  0.50000000  0.23400702  0.25727684  1
  C  C7  1  0.50000000  0.23400702  0.38227684  1
  C  C8  1  0.50000000  0.23400702  0.50727684  1
  C  C9  1  0.50000000  0.23400702  0.63227684  1
  C  C10  1  0.50000000  0.23400702  0.75727684  1
  C  C11  1  0.50000000  0.23400702  0.88227684  1
  C  C12  1  0.50000000  0.26725615  0.06977684  1
  C  C13  1  0.50000000  0.26725615  0.19477684  1
  C  C14  1  0.50000000  0.26725615  0.31977684  1
  C  C15  1  0.50000000  0.26725615  0.44477684  1
  C  C16  1  0.50000000  0.26725615  0.56977684  1
  C  C17  1  0.50000000  0.26725615  0.69477684  1
  C  C18  1  0.50000000  0.26725615  0.81977684  1
  C  C19  1  0.50000000  0.26725615  0.94477684  1
  C  C20  1  0.50000000  0.33375439  0.06977684  1
  C  C21  1  0.50000000  0.33375439  0.19477684  1
  C  C22  1  0.50000000  0.33375439  0.31977684  1
  C  C23  1  0.50000000  0.33375439  0.44477684  1
  C  C24  1  0.50000000  0.33375439  0.56977684  1
  C  C25  1  0.50000000  0.33375439  0.69477684  1
  C  C26  1  0.50000000  0.33375439  0.81977684  1
  C  C27  1  0.50000000  0.33375439  0.94477684  1
  C  C28  1  0.50000000  0.36700351  0.00727684  1
  C  C29  1  0.50000000  0.36700351  0.13227684  1
  C  C30  1  0.50000000  0.36700351  0.25727684  1
  C  C31  1  0.50000000  0.36700351  0.38227684  1
  C  C32  1  0.50000000  0.36700351  0.50727684  1
  C  C33  1  0.50000000  0.36700351  0.63227684  1
  C  C34  1  0.50000000  0.36700351  0.75727684  1
  C  C35  1  0.50000000  0.36700351  0.88227684  1
  C  C36  1  0.50000000  0.43350176  0.00727684  1
  C  C37  1  0.50000000  0.43350176  0.13227684  1
  C  C38  1  0.50000000  0.43350176  0.25727684  1
  C  C39  1  0.50000000  0.43350176  0.38227684  1
  C  C40  1  0.50000000  0.43350176  0.50727684  1
  C  C41  1  0.50000000  0.43350176  0.63227684  1
  C  C42  1  0.50000000  0.43350176  0.75727684  1
  C  C43  1  0.50000000  0.43350176  0.88227684  1
  C  C44  1  0.50000000  0.46675088  0.06977684  1
  C  C45  1  0.50000000  0.46675088  0.19477684  1
  C  C46  1  0.50000000  0.46675088  0.31977684  1
  C  C47  1  0.50000000  0.46675088  0.44477684  1
  C  C48  1  0.50000000  0.46675088  0.56977684  1
  C  C49  1  0.50000000  0.46675088  0.69477684  1
  C  C50  1  0.50000000  0.46675088  0.81977684  1
  C  C51  1  0.50000000  0.46675088  0.94477684  1
  C  C52  1  0.50000000  0.53324912  0.06977684  1
  C  C53  1  0.50000000  0.53324912  0.19477684  1
  C  C54  1  0.50000000  0.53324912  0.31977684  1
  C  C55  1  0.50000000  0.53324912  0.44477684  1
  C  C56  1  0.50000000  0.53324912  0.56977684  1
  C  C57  1  0.50000000  0.53324912  0.69477684  1
  C  C58  1  0.50000000  0.53324912  0.81977684  1
  C  C59  1  0.50000000  0.53324912  0.94477684  1
  C  C60  1  0.50000000  0.56649824  0.00727684  1
  C  C61  1  0.50000000  0.56649824  0.13227684  1
  C  C62  1  0.50000000  0.56649824  0.25727684  1
  C  C63  1  0.50000000  0.56649824  0.38227684  1
  C  C64  1  0.50000000  0.56649824  0.50727684  1
  C  C65  1  0.50000000  0.56649824  0.63227684  1
  C  C66  1  0.50000000  0.56649824  0.75727684  1
  C  C67  1  0.50000000  0.56649824  0.88227684  1
  C  C68  1  0.50000000  0.63299649  0.50727684  1
  C  C69  1  0.50000000  0.63299649  0.63227684  1
  C  C70  1  0.50000000  0.63299649  0.75727684  1
  C  C71  1  0.50000000  0.63299649  0.88227684  1
  C  C72  1  0.50000000  0.66624561  0.56977684  1
  C  C73  1  0.50000000  0.66624561  0.69477684  1
  C  C74  1  0.50000000  0.66624561  0.81977684  1
  C  C75  1  0.50000000  0.66624561  0.94477684  1
  C  C76  1  0.50000000  0.73274385  0.56977684  1
  C  C77  1  0.50000000  0.73274385  0.69477684  1
  C  C78  1  0.50000000  0.73274385  0.81977684  1
  C  C79  1  0.50000000  0.73274385  0.94477684  1
  H  H80  1  0.50000000  0.81700650  0.50727684  1
  H  H81  1  0.50000000  0.81700650  0.63227684  1
  H  H82  1  0.50000000  0.81700650  0.75727684  1
  H  H83  1  0.50000000  0.81700650  0.88227684  1
  H  H84  1  0.50000000  0.18299350  0.00727684  1
  H  H85  1  0.50000000  0.18299350  0.13227684  1
  H  H86  1  0.50000000  0.18299350  0.25727684  1
  H  H87  1  0.50000000  0.18299350  0.38227684  1
  H  H88  1  0.50000000  0.18299350  0.50727684  1
  H  H89  1  0.50000000  0.18299350  0.63227684  1
  H  H90  1  0.50000000  0.18299350  0.75727684  1
  H  H91  1  0.50000000  0.18299350  0.88227684  1
  H  H92  1  0.50000000  0.74048621  0.45933053  1
  H  H93  1  0.50000000  0.61751177  0.00727684  1
  H  H94  1  0.50000000  0.61751177  0.13227684  1
  H  H95  1  0.50000000  0.61751177  0.25727684  1
  H  H96  1  0.50000000  0.61751177  0.38227684  1
  H  H97  1  0.50000000  0.65850325  0.45933053  1
  H  H98  1  0.50000000  0.64073885  0.99272316  1
  H  H99  1  0.50000000  0.75825062  0.99272316  1
