# generated using pymatgen
data_H3C8
_symmetry_space_group_name_H-M   'P 1'
_cell_length_a   10.00000000
_cell_length_b   21.36688000
_cell_length_c   19.68801368
_cell_angle_alpha   90.00000000
_cell_angle_beta   90.00000000
_cell_angle_gamma   90.00000000
_symmetry_Int_Tables_number   1
_chemical_formula_structural   H3C8
_chemical_formula_sum   'H24 C64'
_cell_volume   4206.71425815
_cell_formula_units_Z   8
loop_
 _symmetry_equiv_pos_site_id
 _symmetry_equiv_pos_as_xyz
  1  'x, y, z'
loop_
 _atom_site_type_symbol
 _atom_site_label
 _atom_site_symmetry_multiplicity
 _atom_site_fract_x
 _atom_site_fract_y
 _atom_site_fract_z
 _atom_site_occupancy
  C  C0  1  0.50000000  0.76599298  0.53125000  1
  C  C1  1  0.50000000  0.76599298  0.65625000  1
  C  C2  1  0.50000000  0.76599298  0.78125000  1
  C  C3  1  0.50000000  0.76599298  0.90625000  1
  C  C4  1  0.50000000  0.23400702  0.53125000  1
  C  C5  1  0.50000000  0.23400702  0.65625000  1
  C  C6  1  0.50000000  0.23400702  0.78125000  1
  C  C7  1  0.50000000  0.23400702  0.90625000  1
  C  C8  1  0.50000000  0.26725615  0.59375000  1
  C  C9  1  0.50000000  0.26725615  0.71875000  1
  C  C10  1  0.50000000  0.26725615  0.84375000  1
  C  C11  1  0.50000000  0.26725615  0.96875000  1
  C  C12  1  0.50000000  0.33375439  0.09375000  1
  C  C13  1  0.50000000  0.33375439  0.21875000  1
  C  C14  1  0.50000000  0.33375439  0.34375000  1
  C  C15  1  0.50000000  0.33375439  0.46875000  1
  C  C16  1  0.50000000  0.33375439  0.59375000  1
  C  C17  1  0.50000000  0.33375439  0.71875000  1
  C  C18  1  0.50000000  0.33375439  0.84375000  1
  C  C19  1  0.50000000  0.33375439  0.96875000  1
  C  C20  1  0.50000000  0.36700351  0.03125000  1
  C  C21  1  0.50000000  0.36700351  0.15625000  1
  C  C22  1  0.50000000  0.36700351  0.28125000  1
  C  C23  1  0.50000000  0.36700351  0.40625000  1
  C  C24  1  0.50000000  0.36700351  0.53125000  1
  C  C25  1  0.50000000  0.36700351  0.65625000  1
  C  C26  1  0.50000000  0.36700351  0.78125000  1
  C  C27  1  0.50000000  0.36700351  0.90625000  1
  C  C28  1  0.50000000  0.43350176  0.03125000  1
  C  C29  1  0.50000000  0.43350176  0.15625000  1
  C  C30  1  0.50000000  0.43350176  0.28125000  1
  C  C31  1  0.50000000  0.43350176  0.40625000  1
  C  C32  1  0.50000000  0.43350176  0.53125000  1
  C  C33  1  0.50000000  0.43350176  0.65625000  1
  C  C34  1  0.50000000  0.43350176  0.78125000  1
  C  C35  1  0.50000000  0.43350176  0.90625000  1
  C  C36  1  0.50000000  0.46675088  0.09375000  1
  C  C37  1  0.50000000  0.46675088  0.21875000  1
  C  C38  1  0.50000000  0.46675088  0.34375000  1
  C  C39  1  0.50000000  0.46675088  0.46875000  1
  C  C40  1  0.50000000  0.46675088  0.59375000  1
  C  C41  1  0.50000000  0.46675088  0.71875000  1
  C  C42  1  0.50000000  0.46675088  0.84375000  1
  C  C43  1  0.50000000  0.46675088  0.96875000  1
  C  C44  1  0.50000000  0.53324912  0.59375000  1
  C  C45  1  0.50000000  0.53324912  0.71875000  1
  C  C46  1  0.50000000  0.53324912  0.84375000  1
  C  C47  1  0.50000000  0.53324912  0.96875000  1
  C  C48  1  0.50000000  0.56649824  0.53125000  1
  C  C49  1  0.50000000  0.56649824  0.65625000  1
  C  C50  1  0.50000000  0.56649824  0.78125000  1
  C  C51  1  0.50000000  0.56649824  0.90625000  1
  C  C52  1  0.50000000  0.63299649  0.53125000  1
  C  C53  1  0.50000000  0.63299649  0.65625000  1
  C  C54  1  0.50000000  0.63299649  0.78125000  1
  C  C55  1  0.50000000  0.63299649  0.90625000  1
  C  C56  1  0.50000000  0.66624561  0.59375000  1
  C  C57  1  0.50000000  0.66624561  0.71875000  1
  C  C58  1  0.50000000  0.66624561  0.84375000  1
  C  C59  1  0.50000000  0.66624561  0.96875000  1
  C  C60  1  0.50000000  0.73274385  0.59375000  1
  C  C61  1  0.50000000  0.73274385  0.71875000  1
  C  C62  1  0.50000000  0.73274385  0.84375000  1
  C  C63  1  0.50000000  0.73274385  0.96875000  1
  H  H64  1  0.50000000  0.81700650  0.53125000  1
  H  H65  1  0.50000000  0.81700650  0.65625000  1
  H  H66  1  0.50000000  0.81700650  0.78125000  1
  H  H67  1  0.50000000  0.81700650  0.90625000  1
  H  H68  1  0.50000000  0.18299350  0.53125000  1
  H  H69  1  0.50000000  0.18299350  0.65625000  1
  H  H70  1  0.50000000  0.18299350  0.78125000  1
  H  H71  1  0.50000000  0.18299350  0.90625000  1
  H  H72  1  0.50000000  0.74048621  0.48330369  1
  H  H73  1  0.50000000  0.25951379  0.48330369  1
  H  H74  1  0.50000000  0.24174938  0.01669631  1
  H  H75  1  0.50000000  0.28274086  0.09375000  1
  H  H76  1  0.50000000  0.28274086  0.21875000  1
  H  H77  1  0.50000000  0.28274086  0.34375000  1
  H  H78  1  0.50000000  0.28274086  0.46875000  1
  H  H79  1  0.50000000  0.51776441  0.09375000  1
  H  H80  1  0.50000000  0.51776441  0.21875000  1
  H  H81  1  0.50000000  0.51776441  0.34375000  1
  H  H82  1  0.50000000  0.51776441  0.46875000  1
  H  H83  1  0.50000000  0.55875589  0.01669631  1
  H  H84  1  0.50000000  0.54099148  0.48330369  1
  H  H85  1  0.50000000  0.65850325  0.48330369  1
  H  H86  1  0.50000000  0.64073885  0.01669631  1
  H  H87  1  0.50000000  0.75825062  0.01669631  1
