# generated using pymatgen
data_H9C20
_symmetry_space_group_name_H-M   'P 1'
_cell_length_a   10.00000000
_cell_length_b   17.10430000
_cell_length_c   19.68801368
_cell_angle_alpha   90.00000000
_cell_angle_beta   90.00000000
_cell_angle_gamma   90.00000000
_symmetry_Int_Tables_number   1
_chemical_formula_structural   H9C20
_chemical_formula_sum   'H18 C40'
_cell_volume   3367.49692447
_cell_formula_units_Z   2
loop_
 _symmetry_equiv_pos_site_id
 _symmetry_equiv_pos_as_xyz
  1  'x, y, z'
loop_
 _atom_site_type_symbol
 _atom_site_label
 _atom_site_symmetry_multiplicity
 _atom_site_fract_x
 _atom_site_fract_y
 _atom_site_fract_z
 _atom_site_occupancy
  C  C0  1  0.50000000  0.35462691  0.03125000  1
  C  C1  1  0.50000000  0.35462691  0.15625000  1
  C  C2  1  0.50000000  0.35462691  0.28125000  1
  C  C3  1  0.50000000  0.35462691  0.40625000  1
  C  C4  1  0.50000000  0.35462691  0.53125000  1
  C  C5  1  0.50000000  0.35462691  0.65625000  1
  C  C6  1  0.50000000  0.35462691  0.78125000  1
  C  C7  1  0.50000000  0.35462691  0.90625000  1
  C  C8  1  0.50000000  0.39616208  0.09375000  1
  C  C9  1  0.50000000  0.39616208  0.21875000  1
  C  C10  1  0.50000000  0.39616208  0.34375000  1
  C  C11  1  0.50000000  0.39616208  0.46875000  1
  C  C12  1  0.50000000  0.39616208  0.59375000  1
  C  C13  1  0.50000000  0.39616208  0.71875000  1
  C  C14  1  0.50000000  0.39616208  0.84375000  1
  C  C15  1  0.50000000  0.39616208  0.96875000  1
  C  C16  1  0.50000000  0.47923242  0.09375000  1
  C  C17  1  0.50000000  0.47923242  0.21875000  1
  C  C18  1  0.50000000  0.47923242  0.34375000  1
  C  C19  1  0.50000000  0.47923242  0.46875000  1
  C  C20  1  0.50000000  0.47923242  0.59375000  1
  C  C21  1  0.50000000  0.47923242  0.71875000  1
  C  C22  1  0.50000000  0.47923242  0.84375000  1
  C  C23  1  0.50000000  0.47923242  0.96875000  1
  C  C24  1  0.50000000  0.52076758  0.03125000  1
  C  C25  1  0.50000000  0.52076758  0.15625000  1
  C  C26  1  0.50000000  0.52076758  0.28125000  1
  C  C27  1  0.50000000  0.52076758  0.40625000  1
  C  C28  1  0.50000000  0.52076758  0.53125000  1
  C  C29  1  0.50000000  0.52076758  0.65625000  1
  C  C30  1  0.50000000  0.52076758  0.78125000  1
  C  C31  1  0.50000000  0.52076758  0.90625000  1
  C  C32  1  0.50000000  0.60383792  0.53125000  1
  C  C33  1  0.50000000  0.60383792  0.65625000  1
  C  C34  1  0.50000000  0.60383792  0.78125000  1
  C  C35  1  0.50000000  0.60383792  0.90625000  1
  C  C36  1  0.50000000  0.64537309  0.59375000  1
  C  C37  1  0.50000000  0.64537309  0.71875000  1
  C  C38  1  0.50000000  0.64537309  0.84375000  1
  C  C39  1  0.50000000  0.64537309  0.96875000  1
  H  H40  1  0.50000000  0.29090025  0.03125000  1
  H  H41  1  0.50000000  0.29090025  0.15625000  1
  H  H42  1  0.50000000  0.29090025  0.28125000  1
  H  H43  1  0.50000000  0.29090025  0.40625000  1
  H  H44  1  0.50000000  0.29090025  0.53125000  1
  H  H45  1  0.50000000  0.29090025  0.65625000  1
  H  H46  1  0.50000000  0.29090025  0.78125000  1
  H  H47  1  0.50000000  0.29090025  0.90625000  1
  H  H48  1  0.50000000  0.70909975  0.59375000  1
  H  H49  1  0.50000000  0.70909975  0.71875000  1
  H  H50  1  0.50000000  0.70909975  0.84375000  1
  H  H51  1  0.50000000  0.70909975  0.96875000  1
  H  H52  1  0.50000000  0.58449425  0.03125000  1
  H  H53  1  0.50000000  0.58449425  0.15625000  1
  H  H54  1  0.50000000  0.58449425  0.28125000  1
  H  H55  1  0.50000000  0.58449425  0.40625000  1
  H  H56  1  0.50000000  0.63570125  0.48330369  1
  H  H57  1  0.50000000  0.61350976  0.01669631  1
