# generated using pymatgen
data_HC4
_symmetry_space_group_name_H-M   'P 1'
_cell_length_a   10.00000000
_cell_length_b   29.89204000
_cell_length_c   19.68801368
_cell_angle_alpha   90.00000000
_cell_angle_beta   90.00000000
_cell_angle_gamma   90.00000000
_symmetry_Int_Tables_number   1
_chemical_formula_structural   HC4
_chemical_formula_sum   'H26 C104'
_cell_volume   5885.14892549
_cell_formula_units_Z   26
loop_
 _symmetry_equiv_pos_site_id
 _symmetry_equiv_pos_as_xyz
  1  'x, y, z'
loop_
 _atom_site_type_symbol
 _atom_site_label
 _atom_site_symmetry_multiplicity
 _atom_site_fract_x
 _atom_site_fract_y
 _atom_site_fract_z
 _atom_site_occupancy
  C  C0  1  0.50000000  0.20291840  0.50727684  1
  C  C1  1  0.50000000  0.20291840  0.63227684  1
  C  C2  1  0.50000000  0.20291840  0.75727684  1
  C  C3  1  0.50000000  0.20291840  0.88227684  1
  C  C4  1  0.50000000  0.22668493  0.56977684  1
  C  C5  1  0.50000000  0.22668493  0.69477684  1
  C  C6  1  0.50000000  0.22668493  0.81977684  1
  C  C7  1  0.50000000  0.22668493  0.94477684  1
  C  C8  1  0.50000000  0.27421799  0.56977684  1
  C  C9  1  0.50000000  0.27421799  0.69477684  1
  C  C10  1  0.50000000  0.27421799  0.81977684  1
  C  C11  1  0.50000000  0.27421799  0.94477684  1
  C  C12  1  0.50000000  0.29798451  0.50727684  1
  C  C13  1  0.50000000  0.29798451  0.63227684  1
  C  C14  1  0.50000000  0.29798451  0.75727684  1
  C  C15  1  0.50000000  0.29798451  0.88227684  1
  C  C16  1  0.50000000  0.34551757  0.50727684  1
  C  C17  1  0.50000000  0.34551757  0.63227684  1
  C  C18  1  0.50000000  0.34551757  0.75727684  1
  C  C19  1  0.50000000  0.34551757  0.88227684  1
  C  C20  1  0.50000000  0.36928410  0.56977684  1
  C  C21  1  0.50000000  0.36928410  0.69477684  1
  C  C22  1  0.50000000  0.36928410  0.81977684  1
  C  C23  1  0.50000000  0.36928410  0.94477684  1
  C  C24  1  0.50000000  0.41681715  0.56977684  1
  C  C25  1  0.50000000  0.41681715  0.69477684  1
  C  C26  1  0.50000000  0.41681715  0.81977684  1
  C  C27  1  0.50000000  0.41681715  0.94477684  1
  C  C28  1  0.50000000  0.44058368  0.50727684  1
  C  C29  1  0.50000000  0.44058368  0.63227684  1
  C  C30  1  0.50000000  0.44058368  0.75727684  1
  C  C31  1  0.50000000  0.44058368  0.88227684  1
  C  C32  1  0.50000000  0.48811674  0.00727684  1
  C  C33  1  0.50000000  0.48811674  0.13227684  1
  C  C34  1  0.50000000  0.48811674  0.25727684  1
  C  C35  1  0.50000000  0.48811674  0.38227684  1
  C  C36  1  0.50000000  0.48811674  0.50727684  1
  C  C37  1  0.50000000  0.48811674  0.63227684  1
  C  C38  1  0.50000000  0.48811674  0.75727684  1
  C  C39  1  0.50000000  0.48811674  0.88227684  1
  C  C40  1  0.50000000  0.51188326  0.06977684  1
  C  C41  1  0.50000000  0.51188326  0.19477684  1
  C  C42  1  0.50000000  0.51188326  0.31977684  1
  C  C43  1  0.50000000  0.51188326  0.44477684  1
  C  C44  1  0.50000000  0.51188326  0.56977684  1
  C  C45  1  0.50000000  0.51188326  0.69477684  1
  C  C46  1  0.50000000  0.51188326  0.81977684  1
  C  C47  1  0.50000000  0.51188326  0.94477684  1
  C  C48  1  0.50000000  0.55941632  0.06977684  1
  C  C49  1  0.50000000  0.55941632  0.19477684  1
  C  C50  1  0.50000000  0.55941632  0.31977684  1
  C  C51  1  0.50000000  0.55941632  0.44477684  1
  C  C52  1  0.50000000  0.55941632  0.56977684  1
  C  C53  1  0.50000000  0.55941632  0.69477684  1
  C  C54  1  0.50000000  0.55941632  0.81977684  1
  C  C55  1  0.50000000  0.55941632  0.94477684  1
  C  C56  1  0.50000000  0.58318285  0.00727684  1
  C  C57  1  0.50000000  0.58318285  0.13227684  1
  C  C58  1  0.50000000  0.58318285  0.25727684  1
  C  C59  1  0.50000000  0.58318285  0.38227684  1
  C  C60  1  0.50000000  0.58318285  0.50727684  1
  C  C61  1  0.50000000  0.58318285  0.63227684  1
  C  C62  1  0.50000000  0.58318285  0.75727684  1
  C  C63  1  0.50000000  0.58318285  0.88227684  1
  C  C64  1  0.50000000  0.63071590  0.00727684  1
  C  C65  1  0.50000000  0.63071590  0.13227684  1
  C  C66  1  0.50000000  0.63071590  0.25727684  1
  C  C67  1  0.50000000  0.63071590  0.38227684  1
  C  C68  1  0.50000000  0.63071590  0.50727684  1
  C  C69  1  0.50000000  0.63071590  0.63227684  1
  C  C70  1  0.50000000  0.63071590  0.75727684  1
  C  C71  1  0.50000000  0.63071590  0.88227684  1
  C  C72  1  0.50000000  0.65448243  0.06977684  1
  C  C73  1  0.50000000  0.65448243  0.19477684  1
  C  C74  1  0.50000000  0.65448243  0.31977684  1
  C  C75  1  0.50000000  0.65448243  0.44477684  1
  C  C76  1  0.50000000  0.65448243  0.56977684  1
  C  C77  1  0.50000000  0.65448243  0.69477684  1
  C  C78  1  0.50000000  0.65448243  0.81977684  1
  C  C79  1  0.50000000  0.65448243  0.94477684  1
  C  C80  1  0.50000000  0.70201549  0.06977684  1
  C  C81  1  0.50000000  0.70201549  0.19477684  1
  C  C82  1  0.50000000  0.70201549  0.31977684  1
  C  C83  1  0.50000000  0.70201549  0.44477684  1
  C  C84  1  0.50000000  0.70201549  0.56977684  1
  C  C85  1  0.50000000  0.70201549  0.69477684  1
  C  C86  1  0.50000000  0.70201549  0.81977684  1
  C  C87  1  0.50000000  0.70201549  0.94477684  1
  C  C88  1  0.50000000  0.72578201  0.00727684  1
  C  C89  1  0.50000000  0.72578201  0.13227684  1
  C  C90  1  0.50000000  0.72578201  0.25727684  1
  C  C91  1  0.50000000  0.72578201  0.38227684  1
  C  C92  1  0.50000000  0.72578201  0.50727684  1
  C  C93  1  0.50000000  0.72578201  0.63227684  1
  C  C94  1  0.50000000  0.72578201  0.75727684  1
  C  C95  1  0.50000000  0.72578201  0.88227684  1
  C  C96  1  0.50000000  0.77331507  0.50727684  1
  C  C97  1  0.50000000  0.77331507  0.63227684  1
  C  C98  1  0.50000000  0.77331507  0.75727684  1
  C  C99  1  0.50000000  0.77331507  0.88227684  1
  C  C100  1  0.50000000  0.79708160  0.56977684  1
  C  C101  1  0.50000000  0.79708160  0.69477684  1
  C  C102  1  0.50000000  0.79708160  0.81977684  1
  C  C103  1  0.50000000  0.79708160  0.94477684  1
  H  H104  1  0.50000000  0.16645385  0.50727684  1
  H  H105  1  0.50000000  0.16645385  0.63227684  1
  H  H106  1  0.50000000  0.16645385  0.75727684  1
  H  H107  1  0.50000000  0.16645385  0.88227684  1
  H  H108  1  0.50000000  0.83354615  0.56977684  1
  H  H109  1  0.50000000  0.83354615  0.69477684  1
  H  H110  1  0.50000000  0.83354615  0.81977684  1
  H  H111  1  0.50000000  0.83354615  0.94477684  1
  H  H112  1  0.50000000  0.22115068  0.45933053  1
  H  H113  1  0.50000000  0.20845265  0.99272316  1
  H  H114  1  0.50000000  0.29245026  0.99272316  1
  H  H115  1  0.50000000  0.27975224  0.45933053  1
  H  H116  1  0.50000000  0.36374985  0.45933053  1
  H  H117  1  0.50000000  0.35105182  0.99272316  1
  H  H118  1  0.50000000  0.43504943  0.99272316  1
  H  H119  1  0.50000000  0.42235140  0.45933053  1
  H  H120  1  0.50000000  0.45165218  0.00727684  1
  H  H121  1  0.50000000  0.45165218  0.13227684  1
  H  H122  1  0.50000000  0.45165218  0.25727684  1
  H  H123  1  0.50000000  0.45165218  0.38227684  1
  H  H124  1  0.50000000  0.76224657  0.00727684  1
  H  H125  1  0.50000000  0.76224657  0.13227684  1
  H  H126  1  0.50000000  0.76224657  0.25727684  1
  H  H127  1  0.50000000  0.76224657  0.38227684  1
  H  H128  1  0.50000000  0.79154735  0.45933053  1
  H  H129  1  0.50000000  0.77884932  0.99272316  1
