# generated using pymatgen
data_H5C16
_symmetry_space_group_name_H-M   'P 1'
_cell_length_a   10.00000000
_cell_length_b   21.36688000
_cell_length_c   19.68801368
_cell_angle_alpha   90.00000000
_cell_angle_beta   90.00000000
_cell_angle_gamma   90.00000000
_symmetry_Int_Tables_number   1
_chemical_formula_structural   H5C16
_chemical_formula_sum   'H20 C64'
_cell_volume   4206.71425815
_cell_formula_units_Z   4
loop_
 _symmetry_equiv_pos_site_id
 _symmetry_equiv_pos_as_xyz
  1  'x, y, z'
loop_
 _atom_site_type_symbol
 _atom_site_label
 _atom_site_symmetry_multiplicity
 _atom_site_fract_x
 _atom_site_fract_y
 _atom_site_fract_z
 _atom_site_occupancy
  C  C0  1  0.50000000  0.28388071  0.00727684  1
  C  C1  1  0.50000000  0.28388071  0.13227684  1
  C  C2  1  0.50000000  0.28388071  0.25727684  1
  C  C3  1  0.50000000  0.28388071  0.38227684  1
  C  C4  1  0.50000000  0.28388071  0.50727684  1
  C  C5  1  0.50000000  0.28388071  0.63227684  1
  C  C6  1  0.50000000  0.28388071  0.75727684  1
  C  C7  1  0.50000000  0.28388071  0.88227684  1
  C  C8  1  0.50000000  0.31712983  0.06977684  1
  C  C9  1  0.50000000  0.31712983  0.19477684  1
  C  C10  1  0.50000000  0.31712983  0.31977684  1
  C  C11  1  0.50000000  0.31712983  0.44477684  1
  C  C12  1  0.50000000  0.31712983  0.56977684  1
  C  C13  1  0.50000000  0.31712983  0.69477684  1
  C  C14  1  0.50000000  0.31712983  0.81977684  1
  C  C15  1  0.50000000  0.31712983  0.94477684  1
  C  C16  1  0.50000000  0.38362807  0.06977684  1
  C  C17  1  0.50000000  0.38362807  0.19477684  1
  C  C18  1  0.50000000  0.38362807  0.31977684  1
  C  C19  1  0.50000000  0.38362807  0.44477684  1
  C  C20  1  0.50000000  0.38362807  0.56977684  1
  C  C21  1  0.50000000  0.38362807  0.69477684  1
  C  C22  1  0.50000000  0.38362807  0.81977684  1
  C  C23  1  0.50000000  0.38362807  0.94477684  1
  C  C24  1  0.50000000  0.41687719  0.00727684  1
  C  C25  1  0.50000000  0.41687719  0.13227684  1
  C  C26  1  0.50000000  0.41687719  0.25727684  1
  C  C27  1  0.50000000  0.41687719  0.38227684  1
  C  C28  1  0.50000000  0.41687719  0.50727684  1
  C  C29  1  0.50000000  0.41687719  0.63227684  1
  C  C30  1  0.50000000  0.41687719  0.75727684  1
  C  C31  1  0.50000000  0.41687719  0.88227684  1
  C  C32  1  0.50000000  0.48337544  0.00727684  1
  C  C33  1  0.50000000  0.48337544  0.13227684  1
  C  C34  1  0.50000000  0.48337544  0.25727684  1
  C  C35  1  0.50000000  0.48337544  0.38227684  1
  C  C36  1  0.50000000  0.48337544  0.50727684  1
  C  C37  1  0.50000000  0.48337544  0.63227684  1
  C  C38  1  0.50000000  0.48337544  0.75727684  1
  C  C39  1  0.50000000  0.48337544  0.88227684  1
  C  C40  1  0.50000000  0.51662456  0.06977684  1
  C  C41  1  0.50000000  0.51662456  0.19477684  1
  C  C42  1  0.50000000  0.51662456  0.31977684  1
  C  C43  1  0.50000000  0.51662456  0.44477684  1
  C  C44  1  0.50000000  0.51662456  0.56977684  1
  C  C45  1  0.50000000  0.51662456  0.69477684  1
  C  C46  1  0.50000000  0.51662456  0.81977684  1
  C  C47  1  0.50000000  0.51662456  0.94477684  1
  C  C48  1  0.50000000  0.58312281  0.56977684  1
  C  C49  1  0.50000000  0.58312281  0.69477684  1
  C  C50  1  0.50000000  0.58312281  0.81977684  1
  C  C51  1  0.50000000  0.58312281  0.94477684  1
  C  C52  1  0.50000000  0.61637193  0.50727684  1
  C  C53  1  0.50000000  0.61637193  0.63227684  1
  C  C54  1  0.50000000  0.61637193  0.75727684  1
  C  C55  1  0.50000000  0.61637193  0.88227684  1
  C  C56  1  0.50000000  0.68287017  0.50727684  1
  C  C57  1  0.50000000  0.68287017  0.63227684  1
  C  C58  1  0.50000000  0.68287017  0.75727684  1
  C  C59  1  0.50000000  0.68287017  0.88227684  1
  C  C60  1  0.50000000  0.71611929  0.56977684  1
  C  C61  1  0.50000000  0.71611929  0.69477684  1
  C  C62  1  0.50000000  0.71611929  0.81977684  1
  C  C63  1  0.50000000  0.71611929  0.94477684  1
  H  H64  1  0.50000000  0.23286718  0.00727684  1
  H  H65  1  0.50000000  0.23286718  0.13227684  1
  H  H66  1  0.50000000  0.23286718  0.25727684  1
  H  H67  1  0.50000000  0.23286718  0.38227684  1
  H  H68  1  0.50000000  0.23286718  0.50727684  1
  H  H69  1  0.50000000  0.23286718  0.63227684  1
  H  H70  1  0.50000000  0.23286718  0.75727684  1
  H  H71  1  0.50000000  0.23286718  0.88227684  1
  H  H72  1  0.50000000  0.76713282  0.56977684  1
  H  H73  1  0.50000000  0.76713282  0.69477684  1
  H  H74  1  0.50000000  0.76713282  0.81977684  1
  H  H75  1  0.50000000  0.76713282  0.94477684  1
  H  H76  1  0.50000000  0.56763809  0.06977684  1
  H  H77  1  0.50000000  0.56763809  0.19477684  1
  H  H78  1  0.50000000  0.56763809  0.31977684  1
  H  H79  1  0.50000000  0.56763809  0.44477684  1
  H  H80  1  0.50000000  0.60862957  0.99272316  1
  H  H81  1  0.50000000  0.59086516  0.45933053  1
  H  H82  1  0.50000000  0.70837693  0.45933053  1
  H  H83  1  0.50000000  0.69061253  0.99272316  1
