# generated using pymatgen
data_H7C18
_symmetry_space_group_name_H-M   'P 1'
_cell_length_a   20.00000000
_cell_length_b   40.19450000
_cell_length_c   17.15673173
_cell_angle_alpha   90.00000000
_cell_angle_beta   90.00000000
_cell_angle_gamma   90.00000000
_symmetry_Int_Tables_number   1
_chemical_formula_structural   H7C18
_chemical_formula_sum   'H28 C72'
_cell_volume   13792.12507337
_cell_formula_units_Z   4
loop_
 _symmetry_equiv_pos_site_id
 _symmetry_equiv_pos_as_xyz
  1  'x, y, z'
loop_
 _atom_site_type_symbol
 _atom_site_label
 _atom_site_symmetry_multiplicity
 _atom_site_fract_x
 _atom_site_fract_y
 _atom_site_fract_z
 _atom_site_occupancy
  C  C0  1  0.50000000  0.28562999  0.66495475  1
  C  C1  1  0.50000000  0.28558015  0.91567993  1
  C  C2  1  0.50000000  0.31558981  0.70806917  1
  C  C3  1  0.50000000  0.31545182  0.95884379  1
  C  C4  1  0.50000000  0.28565725  0.58467476  1
  C  C5  1  0.50000000  0.28563256  0.83522935  1
  C  C6  1  0.50000000  0.34627032  0.66661880  1
  C  C7  1  0.50000000  0.34617843  0.91725817  1
  C  C8  1  0.50000000  0.37713478  0.70848760  1
  C  C9  1  0.50000000  0.37712491  0.95860935  1
  C  C10  1  0.50000000  0.31562875  0.54165775  1
  C  C11  1  0.50000000  0.31558972  0.79229339  1
  C  C12  1  0.50000000  0.34629806  0.58310926  1
  C  C13  1  0.50000000  0.34624695  0.83373831  1
  C  C14  1  0.50000000  0.40778477  0.66665895  1
  C  C15  1  0.50000000  0.40774816  0.91691130  1
  C  C16  1  0.50000000  0.43848332  0.70821918  1
  C  C17  1  0.50000000  0.43850679  0.95825203  1
  C  C18  1  0.50000000  0.37716327  0.54120878  1
  C  C19  1  0.50000000  0.37711010  0.79172991  1
  C  C20  1  0.50000000  0.40781080  0.58296494  1
  C  C21  1  0.50000000  0.40778188  0.83324058  1
  C  C22  1  0.50000000  0.46928420  0.66641548  1
  C  C23  1  0.50000000  0.46928416  0.16600811  1
  C  C24  1  0.50000000  0.46927624  0.91658631  1
  C  C25  1  0.50000000  0.46929275  0.41615168  1
  C  C26  1  0.50000000  0.50000000  0.70804984  1
  C  C27  1  0.50000000  0.50000000  0.20760893  1
  C  C28  1  0.50000000  0.50000000  0.95807573  1
  C  C29  1  0.50000000  0.50000000  0.45782145  1
  C  C30  1  0.50000000  0.43849170  0.54130189  1
  C  C31  1  0.50000000  0.43847983  0.79157181  1
  C  C32  1  0.50000000  0.46929275  0.58308026  1
  C  C33  1  0.50000000  0.46927624  0.08264564  1
  C  C34  1  0.50000000  0.46928416  0.83322383  1
  C  C35  1  0.50000000  0.46928420  0.33281646  1
  C  C36  1  0.50000000  0.53071580  0.66641548  1
  C  C37  1  0.50000000  0.53071584  0.16600811  1
  C  C38  1  0.50000000  0.53072376  0.91658631  1
  C  C39  1  0.50000000  0.53070725  0.41615168  1
  C  C40  1  0.50000000  0.56151668  0.70821918  1
  C  C41  1  0.50000000  0.56149321  0.95825203  1
  C  C42  1  0.50000000  0.50000000  0.54141049  1
  C  C43  1  0.50000000  0.50000000  0.04115621  1
  C  C44  1  0.50000000  0.50000000  0.79162301  1
  C  C45  1  0.50000000  0.50000000  0.29118210  1
  C  C46  1  0.50000000  0.53070725  0.58308026  1
  C  C47  1  0.50000000  0.53072376  0.08264564  1
  C  C48  1  0.50000000  0.53071584  0.83322383  1
  C  C49  1  0.50000000  0.53071580  0.33281646  1
  C  C50  1  0.50000000  0.59221523  0.66665895  1
  C  C51  1  0.50000000  0.59225184  0.91691130  1
  C  C52  1  0.50000000  0.62286522  0.70848760  1
  C  C53  1  0.50000000  0.62287509  0.95860935  1
  C  C54  1  0.50000000  0.56150831  0.54130189  1
  C  C55  1  0.50000000  0.56152017  0.79157180  1
  C  C56  1  0.50000000  0.59218921  0.58296494  1
  C  C57  1  0.50000000  0.59221813  0.83324058  1
  C  C58  1  0.50000000  0.65372968  0.66661880  1
  C  C59  1  0.50000000  0.65382157  0.91725817  1
  C  C60  1  0.50000000  0.68441020  0.70806917  1
  C  C61  1  0.50000000  0.68454819  0.95884379  1
  C  C62  1  0.50000000  0.62283673  0.54120878  1
  C  C63  1  0.50000000  0.62288991  0.79172991  1
  C  C64  1  0.50000000  0.65370194  0.58310926  1
  C  C65  1  0.50000000  0.65375306  0.83373830  1
  C  C66  1  0.50000000  0.71437001  0.66495475  1
  C  C67  1  0.50000000  0.71441985  0.91567992  1
  C  C68  1  0.50000000  0.68437125  0.54165775  1
  C  C69  1  0.50000000  0.68441028  0.79229338  1
  C  C70  1  0.50000000  0.71434275  0.58467477  1
  C  C71  1  0.50000000  0.71436744  0.83522935  1
  H  H72  1  0.50000000  0.26167088  0.69503247  1
  H  H73  1  0.50000000  0.26164006  0.94592191  1
  H  H74  1  0.50000000  0.26170737  0.55459413  1
  H  H75  1  0.50000000  0.26175301  0.80476621  1
  H  H76  1  0.50000000  0.73832912  0.69503247  1
  H  H77  1  0.50000000  0.73835994  0.94592191  1
  H  H78  1  0.50000000  0.73829264  0.55459413  1
  H  H79  1  0.50000000  0.73824699  0.80476621  1
  H  H80  1  0.50000000  0.68438031  0.47812584  1
  H  H81  1  0.50000000  0.31492221  0.47814741  1
  H  H82  1  0.50000000  0.62275131  0.47767719  1
  H  H83  1  0.50000000  0.37712056  0.47767695  1
  H  H84  1  0.50000000  0.55420851  0.19774289  1
  H  H85  1  0.50000000  0.55421129  0.44784026  1
  H  H86  1  0.50000000  0.55419918  0.05084085  1
  H  H87  1  0.50000000  0.55421321  0.30110093  1
  H  H88  1  0.50000000  0.56147544  0.47777002  1
  H  H89  1  0.50000000  0.44580219  0.19778632  1
  H  H90  1  0.50000000  0.44581101  0.44793086  1
  H  H91  1  0.50000000  0.43844537  0.47777007  1
  H  H92  1  0.50000000  0.44580082  0.05084085  1
  H  H93  1  0.50000000  0.44578679  0.30110093  1
  H  H94  1  0.50000000  0.31466371  0.02234887  1
  H  H95  1  0.50000000  0.37726763  0.02214038  1
  H  H96  1  0.50000000  0.43858130  0.02178370  1
  H  H97  1  0.50000000  0.56148002  0.02178393  1
  H  H98  1  0.50000000  0.62279674  0.02214100  1
  H  H99  1  0.50000000  0.68454124  0.02237570  1
