# generated using pymatgen
data_HC4
_symmetry_space_group_name_H-M   'P 1'
_cell_length_a   20.00000000
_cell_length_b   40.19450000
_cell_length_c   16.82134228
_cell_angle_alpha   90.00000000
_cell_angle_beta   90.00000000
_cell_angle_gamma   90.00000000
_symmetry_Int_Tables_number   1
_chemical_formula_structural   HC4
_chemical_formula_sum   'H22 C88'
_cell_volume   13522.50884593
_cell_formula_units_Z   22
loop_
 _symmetry_equiv_pos_site_id
 _symmetry_equiv_pos_as_xyz
  1  'x, y, z'
loop_
 _atom_site_type_symbol
 _atom_site_label
 _atom_site_symmetry_multiplicity
 _atom_site_fract_x
 _atom_site_fract_y
 _atom_site_fract_z
 _atom_site_occupancy
  C  C0  1  0.50000000  0.28562999  0.66863536  1
  C  C1  1  0.50000000  0.28558015  0.92435958  1
  C  C2  1  0.50000000  0.31558981  0.71260941  1
  C  C3  1  0.50000000  0.31558972  0.20148709  1
  C  C4  1  0.50000000  0.31545182  0.96838406  1
  C  C5  1  0.50000000  0.31562875  0.45711998  1
  C  C6  1  0.50000000  0.28565725  0.58675473  1
  C  C7  1  0.50000000  0.28563256  0.84230495  1
  C  C8  1  0.50000000  0.34627032  0.67033259  1
  C  C9  1  0.50000000  0.34624695  0.15921582  1
  C  C10  1  0.50000000  0.34617843  0.92596929  1
  C  C11  1  0.50000000  0.34629806  0.41484200  1
  C  C12  1  0.50000000  0.37713478  0.71303618  1
  C  C13  1  0.50000000  0.37711009  0.20206180  1
  C  C14  1  0.50000000  0.37712491  0.96814494  1
  C  C15  1  0.50000000  0.37716327  0.45757790  1
  C  C16  1  0.50000000  0.31562875  0.54288002  1
  C  C17  1  0.50000000  0.31545181  0.03161594  1
  C  C18  1  0.50000000  0.31558972  0.79851292  1
  C  C19  1  0.50000000  0.31558981  0.28739059  1
  C  C20  1  0.50000000  0.34629806  0.58515800  1
  C  C21  1  0.50000000  0.34617843  0.07403072  1
  C  C22  1  0.50000000  0.34624695  0.84078418  1
  C  C23  1  0.50000000  0.34627032  0.32966741  1
  C  C24  1  0.50000000  0.40778477  0.67037354  1
  C  C25  1  0.50000000  0.40778188  0.15972348  1
  C  C26  1  0.50000000  0.40774816  0.92561550  1
  C  C27  1  0.50000000  0.40781080  0.41498919  1
  C  C28  1  0.50000000  0.43848332  0.71276241  1
  C  C29  1  0.50000000  0.43847983  0.20222306  1
  C  C30  1  0.50000000  0.43850679  0.96778050  1
  C  C31  1  0.50000000  0.43849170  0.45748293  1
  C  C32  1  0.50000000  0.37716327  0.54242210  1
  C  C33  1  0.50000000  0.37712491  0.03185506  1
  C  C34  1  0.50000000  0.37711010  0.79793820  1
  C  C35  1  0.50000000  0.37713478  0.28696382  1
  C  C36  1  0.50000000  0.40781080  0.58501081  1
  C  C37  1  0.50000000  0.40774816  0.07438451  1
  C  C38  1  0.50000000  0.40778188  0.84027653  1
  C  C39  1  0.50000000  0.40778477  0.32962646  1
  C  C40  1  0.50000000  0.46928420  0.67012522  1
  C  C41  1  0.50000000  0.46928416  0.15974056  1
  C  C42  1  0.50000000  0.46927624  0.92528403  1
  C  C43  1  0.50000000  0.46929275  0.41487157  1
  C  C44  1  0.50000000  0.50000000  0.71258969  1
  C  C45  1  0.50000000  0.50000000  0.20217083  1
  C  C46  1  0.50000000  0.50000000  0.96760069  1
  C  C47  1  0.50000000  0.50000000  0.45737216  1
  C  C48  1  0.50000000  0.43849170  0.54251706  1
  C  C49  1  0.50000000  0.43850679  0.03221950  1
  C  C50  1  0.50000000  0.43847983  0.79777695  1
  C  C51  1  0.50000000  0.43848332  0.28723759  1
  C  C52  1  0.50000000  0.46929275  0.58512843  1
  C  C53  1  0.50000000  0.46927624  0.07471598  1
  C  C54  1  0.50000000  0.46928416  0.84025944  1
  C  C55  1  0.50000000  0.46928420  0.32987478  1
  C  C56  1  0.50000000  0.53071580  0.67012521  1
  C  C57  1  0.50000000  0.53072376  0.92528403  1
  C  C58  1  0.50000000  0.56151668  0.71276241  1
  C  C59  1  0.50000000  0.56149321  0.96778050  1
  C  C60  1  0.50000000  0.50000000  0.54262784  1
  C  C61  1  0.50000000  0.50000000  0.03239932  1
  C  C62  1  0.50000000  0.50000000  0.79782917  1
  C  C63  1  0.50000000  0.50000000  0.28741031  1
  C  C64  1  0.50000000  0.53070725  0.58512843  1
  C  C65  1  0.50000000  0.53071584  0.84025944  1
  C  C66  1  0.50000000  0.59221523  0.67037354  1
  C  C67  1  0.50000000  0.59225184  0.92561550  1
  C  C68  1  0.50000000  0.62286522  0.71303618  1
  C  C69  1  0.50000000  0.62287509  0.96814495  1
  C  C70  1  0.50000000  0.56150831  0.54251706  1
  C  C71  1  0.50000000  0.56152017  0.79777695  1
  C  C72  1  0.50000000  0.59218921  0.58501081  1
  C  C73  1  0.50000000  0.59221813  0.84027652  1
  C  C74  1  0.50000000  0.65372968  0.67033259  1
  C  C75  1  0.50000000  0.65382157  0.92596929  1
  C  C76  1  0.50000000  0.68441020  0.71260941  1
  C  C77  1  0.50000000  0.68454819  0.96838406  1
  C  C78  1  0.50000000  0.62283673  0.54242210  1
  C  C79  1  0.50000000  0.62288991  0.79793820  1
  C  C80  1  0.50000000  0.65370194  0.58515800  1
  C  C81  1  0.50000000  0.65375306  0.84078418  1
  C  C82  1  0.50000000  0.71437001  0.66863536  1
  C  C83  1  0.50000000  0.71441985  0.92435957  1
  C  C84  1  0.50000000  0.68437125  0.54288002  1
  C  C85  1  0.50000000  0.68441028  0.79851291  1
  C  C86  1  0.50000000  0.71434275  0.58675473  1
  C  C87  1  0.50000000  0.71436744  0.84230495  1
  H  H88  1  0.50000000  0.26167088  0.69931278  1
  H  H89  1  0.50000000  0.26164006  0.95520454  1
  H  H90  1  0.50000000  0.26170737  0.55607434  1
  H  H91  1  0.50000000  0.26175301  0.81123442  1
  H  H92  1  0.50000000  0.73832912  0.69931278  1
  H  H93  1  0.50000000  0.73835994  0.95520453  1
  H  H94  1  0.50000000  0.73829264  0.55607434  1
  H  H95  1  0.50000000  0.73824699  0.81123442  1
  H  H96  1  0.50000000  0.68438031  0.47808140  1
  H  H97  1  0.50000000  0.29210470  0.16908790  1
  H  H98  1  0.50000000  0.29214376  0.42472066  1
  H  H99  1  0.50000000  0.29199128  0.06411630  1
  H  H100  1  0.50000000  0.29210484  0.31979003  1
  H  H101  1  0.50000000  0.62275131  0.47762379  1
  H  H102  1  0.50000000  0.56147544  0.47771848  1
  H  H103  1  0.50000000  0.52349267  0.16980332  1
  H  H104  1  0.50000000  0.52350403  0.42505176  1
  H  H105  1  0.50000000  0.52348500  0.06479863  1
  H  H106  1  0.50000000  0.52348500  0.31980963  1
  H  H107  1  0.50000000  0.56148002  0.03257912  1
  H  H108  1  0.50000000  0.62279674  0.03294330  1
  H  H109  1  0.50000000  0.68454124  0.03318269  1
