# generated using pymatgen
data_H11C46
_symmetry_space_group_name_H-M   'P 1'
_cell_length_a   20.00000000
_cell_length_b   40.19450000
_cell_length_c   17.15673173
_cell_angle_alpha   90.00000000
_cell_angle_beta   90.00000000
_cell_angle_gamma   90.00000000
_symmetry_Int_Tables_number   1
_chemical_formula_structural   H11C46
_chemical_formula_sum   'H22 C92'
_cell_volume   13792.12507337
_cell_formula_units_Z   2
loop_
 _symmetry_equiv_pos_site_id
 _symmetry_equiv_pos_as_xyz
  1  'x, y, z'
loop_
 _atom_site_type_symbol
 _atom_site_label
 _atom_site_symmetry_multiplicity
 _atom_site_fract_x
 _atom_site_fract_y
 _atom_site_fract_z
 _atom_site_occupancy
  C  C0  1  0.50000000  0.28562999  0.66533878  1
  C  C1  1  0.50000000  0.28558015  0.91606396  1
  C  C2  1  0.50000000  0.31558981  0.70845320  1
  C  C3  1  0.50000000  0.31558972  0.20732259  1
  C  C4  1  0.50000000  0.31545182  0.95922782  1
  C  C5  1  0.50000000  0.31562875  0.45795822  1
  C  C6  1  0.50000000  0.28565725  0.58505880  1
  C  C7  1  0.50000000  0.28563256  0.83561338  1
  C  C8  1  0.50000000  0.34627032  0.66700283  1
  C  C9  1  0.50000000  0.34624695  0.16587766  1
  C  C10  1  0.50000000  0.34617843  0.91764220  1
  C  C11  1  0.50000000  0.34629806  0.41650671  1
  C  C12  1  0.50000000  0.37713478  0.70887163  1
  C  C13  1  0.50000000  0.37711009  0.20788606  1
  C  C14  1  0.50000000  0.37712491  0.95899338  1
  C  C15  1  0.50000000  0.37716327  0.45840719  1
  C  C16  1  0.50000000  0.31562875  0.54204178  1
  C  C17  1  0.50000000  0.31545181  0.04077218  1
  C  C18  1  0.50000000  0.31558972  0.79267742  1
  C  C19  1  0.50000000  0.31558981  0.29154680  1
  C  C20  1  0.50000000  0.34629806  0.58349329  1
  C  C21  1  0.50000000  0.34617843  0.08235780  1
  C  C22  1  0.50000000  0.34624695  0.83412234  1
  C  C23  1  0.50000000  0.34627032  0.33299717  1
  C  C24  1  0.50000000  0.40778477  0.66704298  1
  C  C25  1  0.50000000  0.40778188  0.16637539  1
  C  C26  1  0.50000000  0.40774816  0.91729533  1
  C  C27  1  0.50000000  0.40781080  0.41665103  1
  C  C28  1  0.50000000  0.43848332  0.70860321  1
  C  C29  1  0.50000000  0.43847983  0.20804417  1
  C  C30  1  0.50000000  0.43850679  0.95863606  1
  C  C31  1  0.50000000  0.43849170  0.45831408  1
  C  C32  1  0.50000000  0.37716327  0.54159281  1
  C  C33  1  0.50000000  0.37712491  0.04100662  1
  C  C34  1  0.50000000  0.37711010  0.79211394  1
  C  C35  1  0.50000000  0.37713478  0.29112837  1
  C  C36  1  0.50000000  0.40781080  0.58334897  1
  C  C37  1  0.50000000  0.40774816  0.08270468  1
  C  C38  1  0.50000000  0.40778188  0.83362461  1
  C  C39  1  0.50000000  0.40778477  0.33295702  1
  C  C40  1  0.50000000  0.46928420  0.66679951  1
  C  C41  1  0.50000000  0.46928416  0.16639214  1
  C  C42  1  0.50000000  0.46927624  0.91697034  1
  C  C43  1  0.50000000  0.46929275  0.41653571  1
  C  C44  1  0.50000000  0.50000000  0.70843387  1
  C  C45  1  0.50000000  0.50000000  0.20799296  1
  C  C46  1  0.50000000  0.50000000  0.95845976  1
  C  C47  1  0.50000000  0.50000000  0.45820548  1
  C  C48  1  0.50000000  0.43849170  0.54168592  1
  C  C49  1  0.50000000  0.43850679  0.04136394  1
  C  C50  1  0.50000000  0.43847983  0.79195584  1
  C  C51  1  0.50000000  0.43848332  0.29139679  1
  C  C52  1  0.50000000  0.46929275  0.58346429  1
  C  C53  1  0.50000000  0.46927624  0.08302967  1
  C  C54  1  0.50000000  0.46928416  0.83360786  1
  C  C55  1  0.50000000  0.46928420  0.33320049  1
  C  C56  1  0.50000000  0.53071580  0.66679951  1
  C  C57  1  0.50000000  0.53071584  0.16639214  1
  C  C58  1  0.50000000  0.53072376  0.91697034  1
  C  C59  1  0.50000000  0.53070725  0.41653571  1
  C  C60  1  0.50000000  0.56151668  0.70860321  1
  C  C61  1  0.50000000  0.56149321  0.95863606  1
  C  C62  1  0.50000000  0.50000000  0.54179452  1
  C  C63  1  0.50000000  0.50000000  0.04154024  1
  C  C64  1  0.50000000  0.50000000  0.79200704  1
  C  C65  1  0.50000000  0.50000000  0.29156613  1
  C  C66  1  0.50000000  0.53070725  0.58346429  1
  C  C67  1  0.50000000  0.53072376  0.08302967  1
  C  C68  1  0.50000000  0.53071584  0.83360786  1
  C  C69  1  0.50000000  0.53071580  0.33320049  1
  C  C70  1  0.50000000  0.59221523  0.66704298  1
  C  C71  1  0.50000000  0.59225184  0.91729533  1
  C  C72  1  0.50000000  0.62286522  0.70887163  1
  C  C73  1  0.50000000  0.62287509  0.95899338  1
  C  C74  1  0.50000000  0.56150831  0.54168592  1
  C  C75  1  0.50000000  0.56152017  0.79195583  1
  C  C76  1  0.50000000  0.59218921  0.58334897  1
  C  C77  1  0.50000000  0.59221813  0.83362461  1
  C  C78  1  0.50000000  0.65372968  0.66700283  1
  C  C79  1  0.50000000  0.65382157  0.91764220  1
  C  C80  1  0.50000000  0.68441020  0.70845320  1
  C  C81  1  0.50000000  0.68454819  0.95922782  1
  C  C82  1  0.50000000  0.62283673  0.54159281  1
  C  C83  1  0.50000000  0.62288991  0.79211394  1
  C  C84  1  0.50000000  0.65370194  0.58349329  1
  C  C85  1  0.50000000  0.65375306  0.83412234  1
  C  C86  1  0.50000000  0.71437001  0.66533878  1
  C  C87  1  0.50000000  0.71441985  0.91606395  1
  C  C88  1  0.50000000  0.68437125  0.54204178  1
  C  C89  1  0.50000000  0.68441028  0.79267741  1
  C  C90  1  0.50000000  0.71434275  0.58505880  1
  C  C91  1  0.50000000  0.71436744  0.83561338  1
  H  H92  1  0.50000000  0.26167088  0.69541650  1
  H  H93  1  0.50000000  0.26164006  0.94630594  1
  H  H94  1  0.50000000  0.26170737  0.55497816  1
  H  H95  1  0.50000000  0.26175301  0.80515024  1
  H  H96  1  0.50000000  0.73832912  0.69541650  1
  H  H97  1  0.50000000  0.73835994  0.94630594  1
  H  H98  1  0.50000000  0.73829264  0.55497816  1
  H  H99  1  0.50000000  0.73824699  0.80515024  1
  H  H100  1  0.50000000  0.68438031  0.47850987  1
  H  H101  1  0.50000000  0.29210470  0.17555676  1
  H  H102  1  0.50000000  0.29214376  0.42619227  1
  H  H103  1  0.50000000  0.29199128  0.07263720  1
  H  H104  1  0.50000000  0.29210484  0.32331288  1
  H  H105  1  0.50000000  0.62275131  0.47806122  1
  H  H106  1  0.50000000  0.55420851  0.19812692  1
  H  H107  1  0.50000000  0.55421129  0.44822430  1
  H  H108  1  0.50000000  0.55419918  0.05122488  1
  H  H109  1  0.50000000  0.55421321  0.30148496  1
  H  H110  1  0.50000000  0.56147544  0.47815405  1
  H  H111  1  0.50000000  0.56148002  0.02216796  1
  H  H112  1  0.50000000  0.62279674  0.02252503  1
  H  H113  1  0.50000000  0.68454124  0.02275973  1
