# generated using pymatgen
data_H2C15
_symmetry_space_group_name_H-M   'P 1'
_cell_length_a   20.00000000
_cell_length_b   40.19450000
_cell_length_c   17.16838493
_cell_angle_alpha   90.00000000
_cell_angle_beta   90.00000000
_cell_angle_gamma   90.00000000
_symmetry_Int_Tables_number   1
_chemical_formula_structural   H2C15
_chemical_formula_sum   'H16 C120'
_cell_volume   13801.49295802
_cell_formula_units_Z   8
loop_
 _symmetry_equiv_pos_site_id
 _symmetry_equiv_pos_as_xyz
  1  'x, y, z'
loop_
 _atom_site_type_symbol
 _atom_site_label
 _atom_site_symmetry_multiplicity
 _atom_site_fract_x
 _atom_site_fract_y
 _atom_site_fract_z
 _atom_site_occupancy
  C  C0  1  0.50000000  0.28562999  0.66522656  1
  C  C1  1  0.50000000  0.28563256  0.16461442  1
  C  C2  1  0.50000000  0.28558015  0.91578155  1
  C  C3  1  0.50000000  0.28565725  0.41499894  1
  C  C4  1  0.50000000  0.31558981  0.70831171  1
  C  C5  1  0.50000000  0.31558972  0.20752124  1
  C  C6  1  0.50000000  0.31545182  0.95891612  1
  C  C7  1  0.50000000  0.31562875  0.45798676  1
  C  C8  1  0.50000000  0.28565725  0.58500106  1
  C  C9  1  0.50000000  0.28558015  0.08421845  1
  C  C10  1  0.50000000  0.28563256  0.83538558  1
  C  C11  1  0.50000000  0.28563000  0.33477344  1
  C  C12  1  0.50000000  0.34627032  0.66688948  1
  C  C13  1  0.50000000  0.34624695  0.16610445  1
  C  C14  1  0.50000000  0.34617843  0.91735872  1
  C  C15  1  0.50000000  0.34629806  0.41656338  1
  C  C16  1  0.50000000  0.37713478  0.70872986  1
  C  C17  1  0.50000000  0.37711009  0.20808434  1
  C  C18  1  0.50000000  0.37712491  0.95868184  1
  C  C19  1  0.50000000  0.37716327  0.45843542  1
  C  C20  1  0.50000000  0.31562875  0.54201324  1
  C  C21  1  0.50000000  0.31545181  0.04108388  1
  C  C22  1  0.50000000  0.31558972  0.79247876  1
  C  C23  1  0.50000000  0.31558981  0.29168829  1
  C  C24  1  0.50000000  0.34629806  0.58343662  1
  C  C25  1  0.50000000  0.34617843  0.08264128  1
  C  C26  1  0.50000000  0.34624695  0.83389555  1
  C  C27  1  0.50000000  0.34627032  0.33311052  1
  C  C28  1  0.50000000  0.40778477  0.66692960  1
  C  C29  1  0.50000000  0.40778188  0.16660184  1
  C  C30  1  0.50000000  0.40774816  0.91701208  1
  C  C31  1  0.50000000  0.40781080  0.41670760  1
  C  C32  1  0.50000000  0.43848332  0.70846162  1
  C  C33  1  0.50000000  0.43847983  0.20824233  1
  C  C34  1  0.50000000  0.43850679  0.95832476  1
  C  C35  1  0.50000000  0.43849170  0.45834238  1
  C  C36  1  0.50000000  0.37716327  0.54156458  1
  C  C37  1  0.50000000  0.37712491  0.04131816  1
  C  C38  1  0.50000000  0.37711010  0.79191567  1
  C  C39  1  0.50000000  0.37713478  0.29127015  1
  C  C40  1  0.50000000  0.40781080  0.58329240  1
  C  C41  1  0.50000000  0.40774816  0.08298792  1
  C  C42  1  0.50000000  0.40778188  0.83339816  1
  C  C43  1  0.50000000  0.40778477  0.33307040  1
  C  C44  1  0.50000000  0.46928420  0.66668630  1
  C  C45  1  0.50000000  0.46928416  0.16661858  1
  C  C46  1  0.50000000  0.46927624  0.91668732  1
  C  C47  1  0.50000000  0.46929275  0.41659236  1
  C  C48  1  0.50000000  0.50000000  0.70829239  1
  C  C49  1  0.50000000  0.50000000  0.20819117  1
  C  C50  1  0.50000000  0.50000000  0.95814858  1
  C  C51  1  0.50000000  0.50000000  0.45823385  1
  C  C52  1  0.50000000  0.43849170  0.54165762  1
  C  C53  1  0.50000000  0.43850679  0.04167524  1
  C  C54  1  0.50000000  0.43847983  0.79175767  1
  C  C55  1  0.50000000  0.43848332  0.29153838  1
  C  C56  1  0.50000000  0.46929275  0.58340764  1
  C  C57  1  0.50000000  0.46927624  0.08331269  1
  C  C58  1  0.50000000  0.46928416  0.83338142  1
  C  C59  1  0.50000000  0.46928420  0.33331370  1
  C  C60  1  0.50000000  0.53071580  0.66668629  1
  C  C61  1  0.50000000  0.53071584  0.16661858  1
  C  C62  1  0.50000000  0.53072376  0.91668732  1
  C  C63  1  0.50000000  0.53070725  0.41659236  1
  C  C64  1  0.50000000  0.56151668  0.70846162  1
  C  C65  1  0.50000000  0.56152017  0.20824234  1
  C  C66  1  0.50000000  0.56149321  0.95832476  1
  C  C67  1  0.50000000  0.56150831  0.45834238  1
  C  C68  1  0.50000000  0.50000000  0.54176615  1
  C  C69  1  0.50000000  0.50000000  0.04185142  1
  C  C70  1  0.50000000  0.50000000  0.79180884  1
  C  C71  1  0.50000000  0.50000000  0.29170761  1
  C  C72  1  0.50000000  0.53070725  0.58340764  1
  C  C73  1  0.50000000  0.53072376  0.08331269  1
  C  C74  1  0.50000000  0.53071584  0.83338142  1
  C  C75  1  0.50000000  0.53071580  0.33331370  1
  C  C76  1  0.50000000  0.59221523  0.66692960  1
  C  C77  1  0.50000000  0.59221813  0.16660184  1
  C  C78  1  0.50000000  0.59225184  0.91701209  1
  C  C79  1  0.50000000  0.59218921  0.41670760  1
  C  C80  1  0.50000000  0.62286522  0.70872986  1
  C  C81  1  0.50000000  0.62288991  0.20808434  1
  C  C82  1  0.50000000  0.62287509  0.95868184  1
  C  C83  1  0.50000000  0.62283673  0.45843542  1
  C  C84  1  0.50000000  0.56150831  0.54165762  1
  C  C85  1  0.50000000  0.56149321  0.04167524  1
  C  C86  1  0.50000000  0.56152017  0.79175767  1
  C  C87  1  0.50000000  0.56151668  0.29153839  1
  C  C88  1  0.50000000  0.59218921  0.58329240  1
  C  C89  1  0.50000000  0.59225185  0.08298792  1
  C  C90  1  0.50000000  0.59221813  0.83339816  1
  C  C91  1  0.50000000  0.59221523  0.33307040  1
  C  C92  1  0.50000000  0.65372968  0.66688948  1
  C  C93  1  0.50000000  0.65375306  0.16610445  1
  C  C94  1  0.50000000  0.65382157  0.91735872  1
  C  C95  1  0.50000000  0.65370194  0.41656339  1
  C  C96  1  0.50000000  0.68441020  0.70831171  1
  C  C97  1  0.50000000  0.68441028  0.20752124  1
  C  C98  1  0.50000000  0.68454819  0.95891612  1
  C  C99  1  0.50000000  0.68437125  0.45798676  1
  C  C100  1  0.50000000  0.62283673  0.54156458  1
  C  C101  1  0.50000000  0.62287509  0.04131816  1
  C  C102  1  0.50000000  0.62288991  0.79191566  1
  C  C103  1  0.50000000  0.62286522  0.29127015  1
  C  C104  1  0.50000000  0.65370194  0.58343662  1
  C  C105  1  0.50000000  0.65382157  0.08264128  1
  C  C106  1  0.50000000  0.65375306  0.83389555  1
  C  C107  1  0.50000000  0.65372968  0.33311052  1
  C  C108  1  0.50000000  0.71437001  0.66522655  1
  C  C109  1  0.50000000  0.71436744  0.16461442  1
  C  C110  1  0.50000000  0.71441985  0.91578155  1
  C  C111  1  0.50000000  0.71434275  0.41499894  1
  C  C112  1  0.50000000  0.68437125  0.54201324  1
  C  C113  1  0.50000000  0.68454819  0.04108388  1
  C  C114  1  0.50000000  0.68441028  0.79247876  1
  C  C115  1  0.50000000  0.68441020  0.29168829  1
  C  C116  1  0.50000000  0.71434275  0.58500106  1
  C  C117  1  0.50000000  0.71441985  0.08421846  1
  C  C118  1  0.50000000  0.71436744  0.83538558  1
  C  C119  1  0.50000000  0.71437001  0.33477344  1
  H  H120  1  0.50000000  0.26167088  0.69528386  1
  H  H121  1  0.50000000  0.26175301  0.19505689  1
  H  H122  1  0.50000000  0.26164006  0.94600301  1
  H  H123  1  0.50000000  0.26170737  0.44505916  1
  H  H124  1  0.50000000  0.26170737  0.55494085  1
  H  H125  1  0.50000000  0.26164006  0.05399700  1
  H  H126  1  0.50000000  0.26175301  0.80494311  1
  H  H127  1  0.50000000  0.26167088  0.30471614  1
  H  H128  1  0.50000000  0.73832912  0.69528386  1
  H  H129  1  0.50000000  0.73824699  0.19505689  1
  H  H130  1  0.50000000  0.73835994  0.94600300  1
  H  H131  1  0.50000000  0.73829263  0.44505915  1
  H  H132  1  0.50000000  0.73829264  0.55494085  1
  H  H133  1  0.50000000  0.73835994  0.05399700  1
  H  H134  1  0.50000000  0.73824699  0.80494311  1
  H  H135  1  0.50000000  0.73832912  0.30471614  1
