# generated using pymatgen
data_H13C38
_symmetry_space_group_name_H-M   'P 1'
_cell_length_a   20.00000000
_cell_length_b   40.19450000
_cell_length_c   16.82739172
_cell_angle_alpha   90.00000000
_cell_angle_beta   90.00000000
_cell_angle_gamma   90.00000000
_symmetry_Int_Tables_number   1
_chemical_formula_structural   H13C38
_chemical_formula_sum   'H26 C76'
_cell_volume   13527.37193324
_cell_formula_units_Z   2
loop_
 _symmetry_equiv_pos_site_id
 _symmetry_equiv_pos_as_xyz
  1  'x, y, z'
loop_
 _atom_site_type_symbol
 _atom_site_label
 _atom_site_symmetry_multiplicity
 _atom_site_fract_x
 _atom_site_fract_y
 _atom_site_fract_z
 _atom_site_occupancy
  C  C0  1  0.50000000  0.28562999  0.66845522  1
  C  C1  1  0.50000000  0.28558015  0.92408750  1
  C  C2  1  0.50000000  0.31558981  0.71241346  1
  C  C3  1  0.50000000  0.31545182  0.96809616  1
  C  C4  1  0.50000000  0.28565725  0.58660402  1
  C  C5  1  0.50000000  0.28563256  0.84206238  1
  C  C6  1  0.50000000  0.34627032  0.67015184  1
  C  C7  1  0.50000000  0.34624695  0.15921882  1
  C  C8  1  0.50000000  0.34617843  0.92569664  1
  C  C9  1  0.50000000  0.34629806  0.41475309  1
  C  C10  1  0.50000000  0.37713478  0.71284008  1
  C  C11  1  0.50000000  0.37711009  0.20204939  1
  C  C12  1  0.50000000  0.37712491  0.96785713  1
  C  C13  1  0.50000000  0.37716327  0.45747363  1
  C  C14  1  0.50000000  0.31562875  0.54274509  1
  C  C15  1  0.50000000  0.31558972  0.79828608  1
  C  C16  1  0.50000000  0.34629806  0.58500787  1
  C  C17  1  0.50000000  0.34617843  0.07406434  1
  C  C18  1  0.50000000  0.34624695  0.84054215  1
  C  C19  1  0.50000000  0.34627032  0.32960913  1
  C  C20  1  0.50000000  0.40778477  0.67019278  1
  C  C21  1  0.50000000  0.40778188  0.15972629  1
  C  C22  1  0.50000000  0.40774816  0.92534297  1
  C  C23  1  0.50000000  0.40781080  0.41490023  1
  C  C24  1  0.50000000  0.43848332  0.71256641  1
  C  C25  1  0.50000000  0.43847983  0.20221059  1
  C  C26  1  0.50000000  0.43850679  0.96749282  1
  C  C27  1  0.50000000  0.43849170  0.45737870  1
  C  C28  1  0.50000000  0.37716327  0.54228734  1
  C  C29  1  0.50000000  0.37712491  0.03190384  1
  C  C30  1  0.50000000  0.37711010  0.79771158  1
  C  C31  1  0.50000000  0.37713478  0.28692089  1
  C  C32  1  0.50000000  0.40781080  0.58486074  1
  C  C33  1  0.50000000  0.40774816  0.07441800  1
  C  C34  1  0.50000000  0.40778188  0.84003468  1
  C  C35  1  0.50000000  0.40778477  0.32956819  1
  C  C36  1  0.50000000  0.46928420  0.66994454  1
  C  C37  1  0.50000000  0.46927624  0.92501163  1
  C  C38  1  0.50000000  0.50000000  0.71239375  1
  C  C39  1  0.50000000  0.50000000  0.96731307  1
  C  C40  1  0.50000000  0.43849170  0.54238226  1
  C  C41  1  0.50000000  0.43850679  0.03226815  1
  C  C42  1  0.50000000  0.43847983  0.79755038  1
  C  C43  1  0.50000000  0.43848332  0.28719456  1
  C  C44  1  0.50000000  0.46929275  0.58497831  1
  C  C45  1  0.50000000  0.46928416  0.84001760  1
  C  C46  1  0.50000000  0.53071580  0.66994454  1
  C  C47  1  0.50000000  0.53072376  0.92501163  1
  C  C48  1  0.50000000  0.56151668  0.71256641  1
  C  C49  1  0.50000000  0.56149321  0.96749282  1
  C  C50  1  0.50000000  0.50000000  0.54249300  1
  C  C51  1  0.50000000  0.50000000  0.79760259  1
  C  C52  1  0.50000000  0.53070725  0.58497831  1
  C  C53  1  0.50000000  0.53071584  0.84001761  1
  C  C54  1  0.50000000  0.59221523  0.67019277  1
  C  C55  1  0.50000000  0.59225184  0.92534298  1
  C  C56  1  0.50000000  0.62286522  0.71284008  1
  C  C57  1  0.50000000  0.62287509  0.96785713  1
  C  C58  1  0.50000000  0.56150831  0.54238226  1
  C  C59  1  0.50000000  0.56152017  0.79755038  1
  C  C60  1  0.50000000  0.59218921  0.58486074  1
  C  C61  1  0.50000000  0.59221813  0.84003468  1
  C  C62  1  0.50000000  0.65372968  0.67015184  1
  C  C63  1  0.50000000  0.65382157  0.92569664  1
  C  C64  1  0.50000000  0.68441020  0.71241346  1
  C  C65  1  0.50000000  0.68454819  0.96809616  1
  C  C66  1  0.50000000  0.62283673  0.54228734  1
  C  C67  1  0.50000000  0.62288991  0.79771158  1
  C  C68  1  0.50000000  0.65370194  0.58500787  1
  C  C69  1  0.50000000  0.65375306  0.84054215  1
  C  C70  1  0.50000000  0.71437001  0.66845522  1
  C  C71  1  0.50000000  0.71441985  0.92408750  1
  C  C72  1  0.50000000  0.68437125  0.54274509  1
  C  C73  1  0.50000000  0.68441028  0.79828608  1
  C  C74  1  0.50000000  0.71434275  0.58660402  1
  C  C75  1  0.50000000  0.71436744  0.84206238  1
  H  H76  1  0.50000000  0.26167088  0.69912161  1
  H  H77  1  0.50000000  0.26164006  0.95492138  1
  H  H78  1  0.50000000  0.26170737  0.55593466  1
  H  H79  1  0.50000000  0.26175301  0.81100302  1
  H  H80  1  0.50000000  0.73832912  0.69912161  1
  H  H81  1  0.50000000  0.73835994  0.95492137  1
  H  H82  1  0.50000000  0.73829264  0.55593466  1
  H  H83  1  0.50000000  0.73824699  0.81100302  1
  H  H84  1  0.50000000  0.68438031  0.47796976  1
  H  H85  1  0.50000000  0.32278805  0.19171424  1
  H  H86  1  0.50000000  0.32282362  0.44718441  1
  H  H87  1  0.50000000  0.31492221  0.47799175  1
  H  H88  1  0.50000000  0.32276512  0.04138188  1
  H  H89  1  0.50000000  0.32276829  0.29729203  1
  H  H90  1  0.50000000  0.62275131  0.47751232  1
  H  H91  1  0.50000000  0.56147544  0.47760698  1
  H  H92  1  0.50000000  0.49996188  0.47771772  1
  H  H93  1  0.50000000  0.46198550  0.16990860  1
  H  H94  1  0.50000000  0.46199982  0.42508691  1
  H  H95  1  0.50000000  0.46195444  0.06480983  1
  H  H96  1  0.50000000  0.46197357  0.31956049  1
  H  H97  1  0.50000000  0.31466371  0.03284413  1
  H  H98  1  0.50000000  0.50001915  0.03208839  1
  H  H99  1  0.50000000  0.56148002  0.03226814  1
  H  H100  1  0.50000000  0.62279674  0.03263220  1
  H  H101  1  0.50000000  0.68454124  0.03287149  1
