# generated using pymatgen
data_H7C16
_symmetry_space_group_name_H-M   'P 1'
_cell_length_a   20.00000000
_cell_length_b   40.19450000
_cell_length_c   16.62896693
_cell_angle_alpha   90.00000000
_cell_angle_beta   90.00000000
_cell_angle_gamma   90.00000000
_symmetry_Int_Tables_number   1
_chemical_formula_structural   H7C16
_chemical_formula_sum   'H28 C64'
_cell_volume   13367.86022535
_cell_formula_units_Z   4
loop_
 _symmetry_equiv_pos_site_id
 _symmetry_equiv_pos_as_xyz
  1  'x, y, z'
loop_
 _atom_site_type_symbol
 _atom_site_label
 _atom_site_symmetry_multiplicity
 _atom_site_fract_x
 _atom_site_fract_y
 _atom_site_fract_z
 _atom_site_occupancy
  C  C0  1  0.50000000  0.28562999  0.66566974  1
  C  C1  1  0.50000000  0.28558015  0.92435235  1
  C  C2  1  0.50000000  0.31558981  0.71015251  1
  C  C3  1  0.50000000  0.31545182  0.96888614  1
  C  C4  1  0.50000000  0.28565725  0.58284185  1
  C  C5  1  0.50000000  0.28563256  0.84134846  1
  C  C6  1  0.50000000  0.34627032  0.66738660  1
  C  C7  1  0.50000000  0.34624695  0.15035689  1
  C  C8  1  0.50000000  0.34617843  0.92598068  1
  C  C9  1  0.50000000  0.34629806  0.40894032  1
  C  C10  1  0.50000000  0.37713478  0.71058422  1
  C  C11  1  0.50000000  0.37712491  0.96864426  1
  C  C12  1  0.50000000  0.31562875  0.53845958  1
  C  C13  1  0.50000000  0.31558972  0.79704981  1
  C  C14  1  0.50000000  0.34629806  0.58122666  1
  C  C15  1  0.50000000  0.34617843  0.06418630  1
  C  C16  1  0.50000000  0.34624695  0.83981009  1
  C  C17  1  0.50000000  0.34627032  0.32278037  1
  C  C18  1  0.50000000  0.40778477  0.66742803  1
  C  C19  1  0.50000000  0.40774816  0.92562280  1
  C  C20  1  0.50000000  0.43848332  0.71030728  1
  C  C21  1  0.50000000  0.43850679  0.96827559  1
  C  C22  1  0.50000000  0.37716327  0.53799636  1
  C  C23  1  0.50000000  0.37711010  0.79646845  1
  C  C24  1  0.50000000  0.40781080  0.58107777  1
  C  C25  1  0.50000000  0.40778188  0.83929657  1
  C  C26  1  0.50000000  0.46928420  0.66717683  1
  C  C27  1  0.50000000  0.46927624  0.92528750  1
  C  C28  1  0.50000000  0.50000000  0.71013256  1
  C  C29  1  0.50000000  0.50000000  0.96809370  1
  C  C30  1  0.50000000  0.43849170  0.53809242  1
  C  C31  1  0.50000000  0.43847983  0.79630533  1
  C  C32  1  0.50000000  0.46929275  0.58119674  1
  C  C33  1  0.50000000  0.46928416  0.83927929  1
  C  C34  1  0.50000000  0.53071580  0.66717683  1
  C  C35  1  0.50000000  0.53072376  0.92528750  1
  C  C36  1  0.50000000  0.56151668  0.71030728  1
  C  C37  1  0.50000000  0.56149321  0.96827560  1
  C  C38  1  0.50000000  0.50000000  0.53820447  1
  C  C39  1  0.50000000  0.50000000  0.79635815  1
  C  C40  1  0.50000000  0.53070725  0.58119674  1
  C  C41  1  0.50000000  0.53071584  0.83927929  1
  C  C42  1  0.50000000  0.59221523  0.66742803  1
  C  C43  1  0.50000000  0.59225184  0.92562280  1
  C  C44  1  0.50000000  0.62286522  0.71058422  1
  C  C45  1  0.50000000  0.62287509  0.96864426  1
  C  C46  1  0.50000000  0.56150831  0.53809242  1
  C  C47  1  0.50000000  0.56152017  0.79630532  1
  C  C48  1  0.50000000  0.59218921  0.58107776  1
  C  C49  1  0.50000000  0.59221813  0.83929657  1
  C  C50  1  0.50000000  0.65372968  0.66738660  1
  C  C51  1  0.50000000  0.65382157  0.92598069  1
  C  C52  1  0.50000000  0.68441020  0.71015251  1
  C  C53  1  0.50000000  0.68454819  0.96888614  1
  C  C54  1  0.50000000  0.62283673  0.53799636  1
  C  C55  1  0.50000000  0.62288991  0.79646845  1
  C  C56  1  0.50000000  0.65370194  0.58122666  1
  C  C57  1  0.50000000  0.65375306  0.83981009  1
  C  C58  1  0.50000000  0.71437001  0.66566974  1
  C  C59  1  0.50000000  0.71441985  0.92435235  1
  C  C60  1  0.50000000  0.68437125  0.53845958  1
  C  C61  1  0.50000000  0.68441028  0.79704981  1
  C  C62  1  0.50000000  0.71434275  0.58284186  1
  C  C63  1  0.50000000  0.71436744  0.84134846  1
  H  H64  1  0.50000000  0.26167088  0.69670206  1
  H  H65  1  0.50000000  0.26164006  0.95555415  1
  H  H66  1  0.50000000  0.26170737  0.55180653  1
  H  H67  1  0.50000000  0.26175301  0.80991849  1
  H  H68  1  0.50000000  0.73832912  0.69670205  1
  H  H69  1  0.50000000  0.73835994  0.95555414  1
  H  H70  1  0.50000000  0.73829264  0.55180653  1
  H  H71  1  0.50000000  0.73824699  0.80991849  1
  H  H72  1  0.50000000  0.68438031  0.47291132  1
  H  H73  1  0.50000000  0.32278805  0.18324006  1
  H  H74  1  0.50000000  0.32282362  0.44175861  1
  H  H75  1  0.50000000  0.31492221  0.47293357  1
  H  H76  1  0.50000000  0.32276512  0.03111386  1
  H  H77  1  0.50000000  0.32276829  0.29007766  1
  H  H78  1  0.50000000  0.62275131  0.47244842  1
  H  H79  1  0.50000000  0.56147544  0.47254420  1
  H  H80  1  0.50000000  0.49996188  0.47265627  1
  H  H81  1  0.50000000  0.43844537  0.47254425  1
  H  H82  1  0.50000000  0.36975796  0.18302186  1
  H  H83  1  0.50000000  0.36979360  0.44167027  1
  H  H84  1  0.50000000  0.36973446  0.03171138  1
  H  H85  1  0.50000000  0.36973825  0.28993488  1
  H  H86  1  0.50000000  0.37712056  0.47244818  1
  H  H87  1  0.50000000  0.43858130  0.03382361  1
  H  H88  1  0.50000000  0.50001915  0.03364195  1
  H  H89  1  0.50000000  0.56148002  0.03382385  1
  H  H90  1  0.50000000  0.62279674  0.03419225  1
  H  H91  1  0.50000000  0.68454124  0.03443440  1
