# generated using pymatgen
data_H11C46
_symmetry_space_group_name_H-M   'P 1'
_cell_length_a   20.00000000
_cell_length_b   40.19450000
_cell_length_c   17.16272450
_cell_angle_alpha   90.00000000
_cell_angle_beta   90.00000000
_cell_angle_gamma   90.00000000
_symmetry_Int_Tables_number   1
_chemical_formula_structural   H11C46
_chemical_formula_sum   'H22 C92'
_cell_volume   13796.94260097
_cell_formula_units_Z   2
loop_
 _symmetry_equiv_pos_site_id
 _symmetry_equiv_pos_as_xyz
  1  'x, y, z'
loop_
 _atom_site_type_symbol
 _atom_site_label
 _atom_site_symmetry_multiplicity
 _atom_site_fract_x
 _atom_site_fract_y
 _atom_site_fract_z
 _atom_site_occupancy
  C  C0  1  0.50000000  0.28562999  0.66516387  1
  C  C1  1  0.50000000  0.28558015  0.91580150  1
  C  C2  1  0.50000000  0.31558981  0.70826324  1
  C  C3  1  0.50000000  0.31545182  0.95895029  1
  C  C4  1  0.50000000  0.28565725  0.58491191  1
  C  C5  1  0.50000000  0.28563256  0.83537901  1
  C  C6  1  0.50000000  0.34627032  0.66682734  1
  C  C7  1  0.50000000  0.34617843  0.91737919  1
  C  C8  1  0.50000000  0.37713478  0.70868152  1
  C  C9  1  0.50000000  0.37711009  0.20787088  1
  C  C10  1  0.50000000  0.37712491  0.95871593  1
  C  C11  1  0.50000000  0.37716327  0.45830453  1
  C  C12  1  0.50000000  0.31562875  0.54190992  1
  C  C13  1  0.50000000  0.31558972  0.79245804  1
  C  C14  1  0.50000000  0.34629806  0.58334695  1
  C  C15  1  0.50000000  0.34624695  0.83388849  1
  C  C16  1  0.50000000  0.40778477  0.66686748  1
  C  C17  1  0.50000000  0.40778188  0.16637471  1
  C  C18  1  0.50000000  0.40774816  0.91703244  1
  C  C19  1  0.50000000  0.40781080  0.41656295  1
  C  C20  1  0.50000000  0.43848332  0.70841319  1
  C  C21  1  0.50000000  0.43847983  0.20802893  1
  C  C22  1  0.50000000  0.43850679  0.95835874  1
  C  C23  1  0.50000000  0.43849170  0.45821146  1
  C  C24  1  0.50000000  0.37716327  0.54146111  1
  C  C25  1  0.50000000  0.37712491  0.04104971  1
  C  C26  1  0.50000000  0.37711010  0.79189476  1
  C  C27  1  0.50000000  0.37713478  0.29108412  1
  C  C28  1  0.50000000  0.40781080  0.58320269  1
  C  C29  1  0.50000000  0.40774816  0.08273321  1
  C  C30  1  0.50000000  0.40778188  0.83339093  1
  C  C31  1  0.50000000  0.40778477  0.33289816  1
  C  C32  1  0.50000000  0.46928420  0.66662409  1
  C  C33  1  0.50000000  0.46928416  0.16639145  1
  C  C34  1  0.50000000  0.46927624  0.91670756  1
  C  C35  1  0.50000000  0.46929275  0.41644767  1
  C  C36  1  0.50000000  0.50000000  0.70824391  1
  C  C37  1  0.50000000  0.50000000  0.20797774  1
  C  C38  1  0.50000000  0.50000000  0.95818250  1
  C  C39  1  0.50000000  0.50000000  0.45810289  1
  C  C40  1  0.50000000  0.43849170  0.54155418  1
  C  C41  1  0.50000000  0.43850679  0.04140690  1
  C  C42  1  0.50000000  0.43847983  0.79173671  1
  C  C43  1  0.50000000  0.43848332  0.29135245  1
  C  C44  1  0.50000000  0.46929275  0.58331796  1
  C  C45  1  0.50000000  0.46927624  0.08305808  1
  C  C46  1  0.50000000  0.46928416  0.83337419  1
  C  C47  1  0.50000000  0.46928420  0.33314155  1
  C  C48  1  0.50000000  0.53071580  0.66662409  1
  C  C49  1  0.50000000  0.53071584  0.16639145  1
  C  C50  1  0.50000000  0.53072376  0.91670757  1
  C  C51  1  0.50000000  0.53070725  0.41644767  1
  C  C52  1  0.50000000  0.56151668  0.70841319  1
  C  C53  1  0.50000000  0.56152017  0.20802893  1
  C  C54  1  0.50000000  0.56149321  0.95835874  1
  C  C55  1  0.50000000  0.56150831  0.45821146  1
  C  C56  1  0.50000000  0.50000000  0.54166275  1
  C  C57  1  0.50000000  0.50000000  0.04158314  1
  C  C58  1  0.50000000  0.50000000  0.79178790  1
  C  C59  1  0.50000000  0.50000000  0.29152173  1
  C  C60  1  0.50000000  0.53070725  0.58331796  1
  C  C61  1  0.50000000  0.53072376  0.08305808  1
  C  C62  1  0.50000000  0.53071584  0.83337419  1
  C  C63  1  0.50000000  0.53071580  0.33314155  1
  C  C64  1  0.50000000  0.59221523  0.66686747  1
  C  C65  1  0.50000000  0.59221813  0.16637471  1
  C  C66  1  0.50000000  0.59225184  0.91703244  1
  C  C67  1  0.50000000  0.59218921  0.41656295  1
  C  C68  1  0.50000000  0.62286522  0.70868152  1
  C  C69  1  0.50000000  0.62287509  0.95871594  1
  C  C70  1  0.50000000  0.56150831  0.54155418  1
  C  C71  1  0.50000000  0.56149321  0.04140690  1
  C  C72  1  0.50000000  0.56152017  0.79173671  1
  C  C73  1  0.50000000  0.56151668  0.29135245  1
  C  C74  1  0.50000000  0.59218921  0.58320269  1
  C  C75  1  0.50000000  0.59225185  0.08273321  1
  C  C76  1  0.50000000  0.59221813  0.83339093  1
  C  C77  1  0.50000000  0.59221523  0.33289817  1
  C  C78  1  0.50000000  0.65372968  0.66682734  1
  C  C79  1  0.50000000  0.65382157  0.91737919  1
  C  C80  1  0.50000000  0.68441020  0.70826324  1
  C  C81  1  0.50000000  0.68454819  0.95895029  1
  C  C82  1  0.50000000  0.62283673  0.54146111  1
  C  C83  1  0.50000000  0.62288991  0.79189476  1
  C  C84  1  0.50000000  0.65370194  0.58334695  1
  C  C85  1  0.50000000  0.65375306  0.83388849  1
  C  C86  1  0.50000000  0.71437001  0.66516387  1
  C  C87  1  0.50000000  0.71441985  0.91580150  1
  C  C88  1  0.50000000  0.68437125  0.54190992  1
  C  C89  1  0.50000000  0.68441028  0.79245804  1
  C  C90  1  0.50000000  0.71434275  0.58491192  1
  C  C91  1  0.50000000  0.71436744  0.83537901  1
  H  H92  1  0.50000000  0.26167088  0.69523109  1
  H  H93  1  0.50000000  0.26164006  0.94603292  1
  H  H94  1  0.50000000  0.26170737  0.55484179  1
  H  H95  1  0.50000000  0.26175301  0.80492651  1
  H  H96  1  0.50000000  0.73832912  0.69523108  1
  H  H97  1  0.50000000  0.73835994  0.94603292  1
  H  H98  1  0.50000000  0.73829264  0.55484179  1
  H  H99  1  0.50000000  0.73824699  0.80492651  1
  H  H100  1  0.50000000  0.68438031  0.47840020  1
  H  H101  1  0.50000000  0.31492221  0.47842175  1
  H  H102  1  0.50000000  0.35361569  0.17615424  1
  H  H103  1  0.50000000  0.35367828  0.42654967  1
  H  H104  1  0.50000000  0.35362995  0.07276409  1
  H  H105  1  0.50000000  0.35365921  0.32287719  1
  H  H106  1  0.50000000  0.61572379  0.19804557  1
  H  H107  1  0.50000000  0.61569733  0.44822382  1
  H  H108  1  0.50000000  0.61569950  0.05082734  1
  H  H109  1  0.50000000  0.61570548  0.30116462  1
  H  H110  1  0.50000000  0.62275131  0.47795170  1
  H  H111  1  0.50000000  0.31466371  0.02243319  1
  H  H112  1  0.50000000  0.62279674  0.02222540  1
  H  H113  1  0.50000000  0.68454124  0.02246002  1
