# generated using pymatgen
data_H7C17
_symmetry_space_group_name_H-M   'P 1'
_cell_length_a   20.00000000
_cell_length_b   40.19450000
_cell_length_c   16.84769707
_cell_angle_alpha   90.00000000
_cell_angle_beta   90.00000000
_cell_angle_gamma   90.00000000
_symmetry_Int_Tables_number   1
_chemical_formula_structural   H7C17
_chemical_formula_sum   'H28 C68'
_cell_volume   13543.69519957
_cell_formula_units_Z   4
loop_
 _symmetry_equiv_pos_site_id
 _symmetry_equiv_pos_as_xyz
  1  'x, y, z'
loop_
 _atom_site_type_symbol
 _atom_site_label
 _atom_site_symmetry_multiplicity
 _atom_site_fract_x
 _atom_site_fract_y
 _atom_site_fract_z
 _atom_site_occupancy
  C  C0  1  0.50000000  0.28562999  0.66837157  1
  C  C1  1  0.50000000  0.28558015  0.92369575  1
  C  C2  1  0.50000000  0.31558981  0.71227683  1
  C  C3  1  0.50000000  0.31558972  0.20195405  1
  C  C4  1  0.50000000  0.31545182  0.96765137  1
  C  C5  1  0.50000000  0.31562875  0.45718705  1
  C  C6  1  0.50000000  0.28565725  0.58661902  1
  C  C7  1  0.50000000  0.28563256  0.84176948  1
  C  C8  1  0.50000000  0.34627032  0.67006614  1
  C  C9  1  0.50000000  0.34624695  0.15974891  1
  C  C10  1  0.50000000  0.34617843  0.92530295  1
  C  C11  1  0.50000000  0.34629806  0.41497521  1
  C  C12  1  0.50000000  0.37713478  0.71270293  1
  C  C13  1  0.50000000  0.37712491  0.96741263  1
  C  C14  1  0.50000000  0.31562875  0.54281295  1
  C  C15  1  0.50000000  0.31545181  0.03234863  1
  C  C16  1  0.50000000  0.31558972  0.79804595  1
  C  C17  1  0.50000000  0.31558981  0.28772318  1
  C  C18  1  0.50000000  0.34629806  0.58502479  1
  C  C19  1  0.50000000  0.34617843  0.07469706  1
  C  C20  1  0.50000000  0.34624695  0.84025109  1
  C  C21  1  0.50000000  0.34627032  0.32993386  1
  C  C22  1  0.50000000  0.40778477  0.67010703  1
  C  C23  1  0.50000000  0.40774816  0.92494971  1
  C  C24  1  0.50000000  0.43848332  0.71242959  1
  C  C25  1  0.50000000  0.43850679  0.96704875  1
  C  C26  1  0.50000000  0.37716327  0.54235574  1
  C  C27  1  0.50000000  0.37711010  0.79747214  1
  C  C28  1  0.50000000  0.40781080  0.58487783  1
  C  C29  1  0.50000000  0.40778188  0.83974423  1
  C  C30  1  0.50000000  0.46928420  0.66985909  1
  C  C31  1  0.50000000  0.46927624  0.92461876  1
  C  C32  1  0.50000000  0.50000000  0.71225714  1
  C  C33  1  0.50000000  0.50000000  0.96686922  1
  C  C34  1  0.50000000  0.43849170  0.54245055  1
  C  C35  1  0.50000000  0.43847983  0.79731114  1
  C  C36  1  0.50000000  0.46929275  0.58499526  1
  C  C37  1  0.50000000  0.46928416  0.83972718  1
  C  C38  1  0.50000000  0.53071580  0.66985909  1
  C  C39  1  0.50000000  0.53072376  0.92461876  1
  C  C40  1  0.50000000  0.56151668  0.71242959  1
  C  C41  1  0.50000000  0.56149321  0.96704875  1
  C  C42  1  0.50000000  0.50000000  0.54256115  1
  C  C43  1  0.50000000  0.50000000  0.79736328  1
  C  C44  1  0.50000000  0.53070725  0.58499526  1
  C  C45  1  0.50000000  0.53071584  0.83972718  1
  C  C46  1  0.50000000  0.59221523  0.67010702  1
  C  C47  1  0.50000000  0.59225184  0.92494971  1
  C  C48  1  0.50000000  0.62286522  0.71270293  1
  C  C49  1  0.50000000  0.62287509  0.96741263  1
  C  C50  1  0.50000000  0.56150831  0.54245056  1
  C  C51  1  0.50000000  0.56152017  0.79731113  1
  C  C52  1  0.50000000  0.59218921  0.58487783  1
  C  C53  1  0.50000000  0.59221813  0.83974423  1
  C  C54  1  0.50000000  0.65372968  0.67006614  1
  C  C55  1  0.50000000  0.65382157  0.92530295  1
  C  C56  1  0.50000000  0.68441020  0.71227683  1
  C  C57  1  0.50000000  0.68454819  0.96765137  1
  C  C58  1  0.50000000  0.62283673  0.54235574  1
  C  C59  1  0.50000000  0.62288991  0.79747214  1
  C  C60  1  0.50000000  0.65370194  0.58502479  1
  C  C61  1  0.50000000  0.65375306  0.84025109  1
  C  C62  1  0.50000000  0.71437001  0.66837156  1
  C  C63  1  0.50000000  0.71441985  0.92369575  1
  C  C64  1  0.50000000  0.68437125  0.54281294  1
  C  C65  1  0.50000000  0.68441028  0.79804595  1
  C  C66  1  0.50000000  0.71434275  0.58661902  1
  C  C67  1  0.50000000  0.71436744  0.84176948  1
  H  H68  1  0.50000000  0.26167088  0.69900100  1
  H  H69  1  0.50000000  0.26164006  0.95449246  1
  H  H70  1  0.50000000  0.26170737  0.55598662  1
  H  H71  1  0.50000000  0.26175301  0.81074756  1
  H  H72  1  0.50000000  0.73832912  0.69900099  1
  H  H73  1  0.50000000  0.73835994  0.95449246  1
  H  H74  1  0.50000000  0.73829264  0.55598662  1
  H  H75  1  0.50000000  0.73824699  0.81074756  1
  H  H76  1  0.50000000  0.68438031  0.47811568  1
  H  H77  1  0.50000000  0.29210470  0.16960555  1
  H  H78  1  0.50000000  0.29214376  0.42483842  1
  H  H79  1  0.50000000  0.29199128  0.06479815  1
  H  H80  1  0.50000000  0.29210484  0.32007193  1
  H  H81  1  0.50000000  0.62275131  0.47765880  1
  H  H82  1  0.50000000  0.56147544  0.47775334  1
  H  H83  1  0.50000000  0.49996188  0.47786395  1
  H  H84  1  0.50000000  0.43844537  0.47775338  1
  H  H85  1  0.50000000  0.36972879  0.19211055  1
  H  H86  1  0.50000000  0.36977853  0.44734255  1
  H  H87  1  0.50000000  0.36966690  0.04236279  1
  H  H88  1  0.50000000  0.36974848  0.29755699  1
  H  H89  1  0.50000000  0.37712056  0.47765856  1
  H  H90  1  0.50000000  0.37726763  0.03210899  1
  H  H91  1  0.50000000  0.43858130  0.03174577  1
  H  H92  1  0.50000000  0.50001915  0.03156647  1
  H  H93  1  0.50000000  0.56148002  0.03174601  1
  H  H94  1  0.50000000  0.62279674  0.03210962  1
  H  H95  1  0.50000000  0.68454124  0.03234863  1
