# generated using pymatgen
data_HC5
_symmetry_space_group_name_H-M   'P 1'
_cell_length_a   20.00000000
_cell_length_b   40.19450000
_cell_length_c   17.16272450
_cell_angle_alpha   90.00000000
_cell_angle_beta   90.00000000
_cell_angle_gamma   90.00000000
_symmetry_Int_Tables_number   1
_chemical_formula_structural   HC5
_chemical_formula_sum   'H20 C100'
_cell_volume   13796.94260100
_cell_formula_units_Z   20
loop_
 _symmetry_equiv_pos_site_id
 _symmetry_equiv_pos_as_xyz
  1  'x, y, z'
loop_
 _atom_site_type_symbol
 _atom_site_label
 _atom_site_symmetry_multiplicity
 _atom_site_fract_x
 _atom_site_fract_y
 _atom_site_fract_z
 _atom_site_occupancy
  C  C0  1  0.50000000  0.28658033  0.66528105  1
  C  C1  1  0.50000000  0.28653049  0.91591868  1
  C  C2  1  0.50000000  0.31654014  0.70838042  1
  C  C3  1  0.50000000  0.31654006  0.20742478  1
  C  C4  1  0.50000000  0.31640215  0.95906747  1
  C  C5  1  0.50000000  0.31657909  0.45797290  1
  C  C6  1  0.50000000  0.28660759  0.58502909  1
  C  C7  1  0.50000000  0.28658290  0.83549619  1
  C  C8  1  0.50000000  0.34722066  0.66694452  1
  C  C9  1  0.50000000  0.34719728  0.16599433  1
  C  C10  1  0.50000000  0.34712877  0.91749637  1
  C  C11  1  0.50000000  0.34724840  0.41653587  1
  C  C12  1  0.50000000  0.37808512  0.70879870  1
  C  C13  1  0.50000000  0.37806043  0.20798806  1
  C  C14  1  0.50000000  0.37807525  0.95883311  1
  C  C15  1  0.50000000  0.37811361  0.45842171  1
  C  C16  1  0.50000000  0.31657909  0.54202710  1
  C  C17  1  0.50000000  0.31640215  0.04093253  1
  C  C18  1  0.50000000  0.31654006  0.79257522  1
  C  C19  1  0.50000000  0.31654014  0.29161959  1
  C  C20  1  0.50000000  0.34724840  0.58346413  1
  C  C21  1  0.50000000  0.34712877  0.08250363  1
  C  C22  1  0.50000000  0.34719728  0.83400567  1
  C  C23  1  0.50000000  0.34722066  0.33305548  1
  C  C24  1  0.50000000  0.40873511  0.66698466  1
  C  C25  1  0.50000000  0.40873221  0.16649189  1
  C  C26  1  0.50000000  0.40869850  0.91714962  1
  C  C27  1  0.50000000  0.40876113  0.41668013  1
  C  C28  1  0.50000000  0.43943366  0.70853037  1
  C  C29  1  0.50000000  0.43943017  0.20814611  1
  C  C30  1  0.50000000  0.43945713  0.95847592  1
  C  C31  1  0.50000000  0.43944204  0.45832864  1
  C  C32  1  0.50000000  0.37811361  0.54157829  1
  C  C33  1  0.50000000  0.37807525  0.04116689  1
  C  C34  1  0.50000000  0.37806043  0.79201194  1
  C  C35  1  0.50000000  0.37808512  0.29120130  1
  C  C36  1  0.50000000  0.40876113  0.58331987  1
  C  C37  1  0.50000000  0.40869850  0.08285039  1
  C  C38  1  0.50000000  0.40873222  0.83350812  1
  C  C39  1  0.50000000  0.40873511  0.33301534  1
  C  C40  1  0.50000000  0.47023454  0.66674127  1
  C  C41  1  0.50000000  0.47023450  0.16650863  1
  C  C42  1  0.50000000  0.47022658  0.91682474  1
  C  C43  1  0.50000000  0.47024309  0.41656485  1
  C  C44  1  0.50000000  0.50095034  0.70836109  1
  C  C45  1  0.50000000  0.50095034  0.20809493  1
  C  C46  1  0.50000000  0.50095034  0.95829968  1
  C  C47  1  0.50000000  0.50095034  0.45822007  1
  C  C48  1  0.50000000  0.43944204  0.54167136  1
  C  C49  1  0.50000000  0.43945713  0.04152408  1
  C  C50  1  0.50000000  0.43943017  0.79185389  1
  C  C51  1  0.50000000  0.43943366  0.29146963  1
  C  C52  1  0.50000000  0.47024309  0.58343515  1
  C  C53  1  0.50000000  0.47022658  0.08317526  1
  C  C54  1  0.50000000  0.47023450  0.83349137  1
  C  C55  1  0.50000000  0.47023454  0.33325873  1
  C  C56  1  0.50000000  0.53166614  0.66674127  1
  C  C57  1  0.50000000  0.53166618  0.16650863  1
  C  C58  1  0.50000000  0.53167410  0.91682475  1
  C  C59  1  0.50000000  0.53165759  0.41656485  1
  C  C60  1  0.50000000  0.56246702  0.70853037  1
  C  C61  1  0.50000000  0.56247051  0.20814611  1
  C  C62  1  0.50000000  0.56244355  0.95847592  1
  C  C63  1  0.50000000  0.56245864  0.45832864  1
  C  C64  1  0.50000000  0.50095034  0.54177993  1
  C  C65  1  0.50000000  0.50095034  0.04170032  1
  C  C66  1  0.50000000  0.50095034  0.79190508  1
  C  C67  1  0.50000000  0.50095034  0.29163891  1
  C  C68  1  0.50000000  0.53165759  0.58343515  1
  C  C69  1  0.50000000  0.53167410  0.08317526  1
  C  C70  1  0.50000000  0.53166618  0.83349137  1
  C  C71  1  0.50000000  0.53166614  0.33325873  1
  C  C72  1  0.50000000  0.59316557  0.66698465  1
  C  C73  1  0.50000000  0.59316847  0.16649189  1
  C  C74  1  0.50000000  0.59320218  0.91714962  1
  C  C75  1  0.50000000  0.59313955  0.41668013  1
  C  C76  1  0.50000000  0.62381556  0.70879870  1
  C  C77  1  0.50000000  0.62382543  0.95883312  1
  C  C78  1  0.50000000  0.56245864  0.54167136  1
  C  C79  1  0.50000000  0.56244355  0.04152408  1
  C  C80  1  0.50000000  0.56247051  0.79185389  1
  C  C81  1  0.50000000  0.56246702  0.29146963  1
  C  C82  1  0.50000000  0.59313955  0.58331987  1
  C  C83  1  0.50000000  0.59320218  0.08285039  1
  C  C84  1  0.50000000  0.59316846  0.83350811  1
  C  C85  1  0.50000000  0.59316557  0.33301535  1
  C  C86  1  0.50000000  0.65468002  0.66694452  1
  C  C87  1  0.50000000  0.65477191  0.91749637  1
  C  C88  1  0.50000000  0.68536054  0.70838042  1
  C  C89  1  0.50000000  0.68549853  0.95906747  1
  C  C90  1  0.50000000  0.62378707  0.54157829  1
  C  C91  1  0.50000000  0.62384025  0.79201194  1
  C  C92  1  0.50000000  0.65465228  0.58346413  1
  C  C93  1  0.50000000  0.65470340  0.83400567  1
  C  C94  1  0.50000000  0.71532035  0.66528105  1
  C  C95  1  0.50000000  0.71537019  0.91591868  1
  C  C96  1  0.50000000  0.68532159  0.54202710  1
  C  C97  1  0.50000000  0.68536062  0.79257522  1
  C  C98  1  0.50000000  0.71529309  0.58502910  1
  C  C99  1  0.50000000  0.71531778  0.83549619  1
  H  H100  1  0.50000000  0.26262122  0.69534827  1
  H  H101  1  0.50000000  0.26259040  0.94615010  1
  H  H102  1  0.50000000  0.26265771  0.55495897  1
  H  H103  1  0.50000000  0.26270335  0.80504369  1
  H  H104  1  0.50000000  0.73927946  0.69534826  1
  H  H105  1  0.50000000  0.73931028  0.94615010  1
  H  H106  1  0.50000000  0.73924297  0.55495897  1
  H  H107  1  0.50000000  0.73919733  0.80504369  1
  H  H108  1  0.50000000  0.68533065  0.47851738  1
  H  H109  1  0.50000000  0.29305504  0.17567004  1
  H  H110  1  0.50000000  0.29309410  0.42621804  1
  H  H111  1  0.50000000  0.29294162  0.07278642  1
  H  H112  1  0.50000000  0.29305518  0.32337457  1
  H  H113  1  0.50000000  0.61667413  0.19816275  1
  H  H114  1  0.50000000  0.61664767  0.44834100  1
  H  H115  1  0.50000000  0.61664983  0.05094452  1
  H  H116  1  0.50000000  0.61665582  0.30128180  1
  H  H117  1  0.50000000  0.62370164  0.47806888  1
  H  H118  1  0.50000000  0.62374708  0.02234258  1
  H  H119  1  0.50000000  0.68549158  0.02257720  1
