# generated using pymatgen
data_H4C29
_symmetry_space_group_name_H-M   'P 1'
_cell_length_a   20.00000000
_cell_length_b   40.19450000
_cell_length_c   16.84769711
_cell_angle_alpha   90.00000000
_cell_angle_beta   90.00000000
_cell_angle_gamma   90.00000000
_symmetry_Int_Tables_number   1
_chemical_formula_structural   H4C29
_chemical_formula_sum   'H16 C116'
_cell_volume   13543.69522912
_cell_formula_units_Z   4
loop_
 _symmetry_equiv_pos_site_id
 _symmetry_equiv_pos_as_xyz
  1  'x, y, z'
loop_
 _atom_site_type_symbol
 _atom_site_label
 _atom_site_symmetry_multiplicity
 _atom_site_fract_x
 _atom_site_fract_y
 _atom_site_fract_z
 _atom_site_occupancy
  C  C0  1  0.50000000  0.28562999  0.66837157  1
  C  C1  1  0.50000000  0.28563256  0.15823052  1
  C  C2  1  0.50000000  0.28558015  0.92369575  1
  C  C3  1  0.50000000  0.28565725  0.41338099  1
  C  C4  1  0.50000000  0.31558981  0.71227683  1
  C  C5  1  0.50000000  0.31558972  0.20195405  1
  C  C6  1  0.50000000  0.31545182  0.96765137  1
  C  C7  1  0.50000000  0.31562875  0.45718705  1
  C  C8  1  0.50000000  0.28565725  0.58661901  1
  C  C9  1  0.50000000  0.28558015  0.07630425  1
  C  C10  1  0.50000000  0.28563256  0.84176948  1
  C  C11  1  0.50000000  0.28563000  0.33162844  1
  C  C12  1  0.50000000  0.34627032  0.67006614  1
  C  C13  1  0.50000000  0.34624695  0.15974891  1
  C  C14  1  0.50000000  0.34617843  0.92530294  1
  C  C15  1  0.50000000  0.34629806  0.41497521  1
  C  C16  1  0.50000000  0.37713478  0.71270293  1
  C  C17  1  0.50000000  0.37711009  0.20252786  1
  C  C18  1  0.50000000  0.37712491  0.96741262  1
  C  C19  1  0.50000000  0.37716327  0.45764426  1
  C  C20  1  0.50000000  0.31562875  0.54281295  1
  C  C21  1  0.50000000  0.31545181  0.03234863  1
  C  C22  1  0.50000000  0.31558972  0.79804595  1
  C  C23  1  0.50000000  0.31558981  0.28772318  1
  C  C24  1  0.50000000  0.34629806  0.58502479  1
  C  C25  1  0.50000000  0.34617843  0.07469706  1
  C  C26  1  0.50000000  0.34624695  0.84025109  1
  C  C27  1  0.50000000  0.34627032  0.32993386  1
  C  C28  1  0.50000000  0.40778477  0.67010703  1
  C  C29  1  0.50000000  0.40778188  0.16025577  1
  C  C30  1  0.50000000  0.40774816  0.92494971  1
  C  C31  1  0.50000000  0.40781080  0.41512217  1
  C  C32  1  0.50000000  0.43848332  0.71242959  1
  C  C33  1  0.50000000  0.43847983  0.20268887  1
  C  C34  1  0.50000000  0.43850679  0.96704875  1
  C  C35  1  0.50000000  0.43849170  0.45754944  1
  C  C36  1  0.50000000  0.37716327  0.54235574  1
  C  C37  1  0.50000000  0.37712491  0.03258737  1
  C  C38  1  0.50000000  0.37711010  0.79747214  1
  C  C39  1  0.50000000  0.37713478  0.28729707  1
  C  C40  1  0.50000000  0.40781080  0.58487783  1
  C  C41  1  0.50000000  0.40774816  0.07505030  1
  C  C42  1  0.50000000  0.40778188  0.83974423  1
  C  C43  1  0.50000000  0.40778477  0.32989297  1
  C  C44  1  0.50000000  0.46928420  0.66985909  1
  C  C45  1  0.50000000  0.46928416  0.16027283  1
  C  C46  1  0.50000000  0.46927624  0.92461876  1
  C  C47  1  0.50000000  0.46929275  0.41500474  1
  C  C48  1  0.50000000  0.50000000  0.71225714  1
  C  C49  1  0.50000000  0.50000000  0.20263673  1
  C  C50  1  0.50000000  0.50000000  0.96686922  1
  C  C51  1  0.50000000  0.50000000  0.45743885  1
  C  C52  1  0.50000000  0.43849170  0.54245055  1
  C  C53  1  0.50000000  0.43850679  0.03295125  1
  C  C54  1  0.50000000  0.43847983  0.79731114  1
  C  C55  1  0.50000000  0.43848332  0.28757042  1
  C  C56  1  0.50000000  0.46929275  0.58499526  1
  C  C57  1  0.50000000  0.46927624  0.07538125  1
  C  C58  1  0.50000000  0.46928416  0.83972718  1
  C  C59  1  0.50000000  0.46928420  0.33014091  1
  C  C60  1  0.50000000  0.53071580  0.66985909  1
  C  C61  1  0.50000000  0.53071584  0.16027283  1
  C  C62  1  0.50000000  0.53072376  0.92461876  1
  C  C63  1  0.50000000  0.53070725  0.41500474  1
  C  C64  1  0.50000000  0.56151668  0.71242959  1
  C  C65  1  0.50000000  0.56152017  0.20268887  1
  C  C66  1  0.50000000  0.56149321  0.96704875  1
  C  C67  1  0.50000000  0.56150831  0.45754944  1
  C  C68  1  0.50000000  0.50000000  0.54256115  1
  C  C69  1  0.50000000  0.50000000  0.03313078  1
  C  C70  1  0.50000000  0.50000000  0.79736328  1
  C  C71  1  0.50000000  0.50000000  0.28774287  1
  C  C72  1  0.50000000  0.53070725  0.58499526  1
  C  C73  1  0.50000000  0.53072376  0.07538125  1
  C  C74  1  0.50000000  0.53071584  0.83972718  1
  C  C75  1  0.50000000  0.53071580  0.33014091  1
  C  C76  1  0.50000000  0.59221523  0.67010702  1
  C  C77  1  0.50000000  0.59221813  0.16025577  1
  C  C78  1  0.50000000  0.59225184  0.92494971  1
  C  C79  1  0.50000000  0.59218921  0.41512217  1
  C  C80  1  0.50000000  0.62286522  0.71270293  1
  C  C81  1  0.50000000  0.62288991  0.20252786  1
  C  C82  1  0.50000000  0.62287509  0.96741263  1
  C  C83  1  0.50000000  0.62283673  0.45764426  1
  C  C84  1  0.50000000  0.56150831  0.54245056  1
  C  C85  1  0.50000000  0.56149321  0.03295125  1
  C  C86  1  0.50000000  0.56152017  0.79731113  1
  C  C87  1  0.50000000  0.56151668  0.28757042  1
  C  C88  1  0.50000000  0.59218921  0.58487783  1
  C  C89  1  0.50000000  0.59225185  0.07505030  1
  C  C90  1  0.50000000  0.59221813  0.83974423  1
  C  C91  1  0.50000000  0.59221523  0.32989298  1
  C  C92  1  0.50000000  0.65372968  0.67006614  1
  C  C93  1  0.50000000  0.65375306  0.15974891  1
  C  C94  1  0.50000000  0.65382157  0.92530295  1
  C  C95  1  0.50000000  0.65370194  0.41497521  1
  C  C96  1  0.50000000  0.68441020  0.71227683  1
  C  C97  1  0.50000000  0.68441028  0.20195405  1
  C  C98  1  0.50000000  0.68454819  0.96765137  1
  C  C99  1  0.50000000  0.68437125  0.45718705  1
  C  C100  1  0.50000000  0.62283673  0.54235574  1
  C  C101  1  0.50000000  0.62287509  0.03258738  1
  C  C102  1  0.50000000  0.62288991  0.79747214  1
  C  C103  1  0.50000000  0.62286522  0.28729708  1
  C  C104  1  0.50000000  0.65370194  0.58502479  1
  C  C105  1  0.50000000  0.65382157  0.07469706  1
  C  C106  1  0.50000000  0.65375306  0.84025109  1
  C  C107  1  0.50000000  0.65372968  0.32993386  1
  C  C108  1  0.50000000  0.71437001  0.66837156  1
  C  C109  1  0.50000000  0.71441985  0.92369575  1
  C  C110  1  0.50000000  0.68437125  0.54281294  1
  C  C111  1  0.50000000  0.68454819  0.03234863  1
  C  C112  1  0.50000000  0.68441028  0.79804595  1
  C  C113  1  0.50000000  0.68441020  0.28772318  1
  C  C114  1  0.50000000  0.71434275  0.58661902  1
  C  C115  1  0.50000000  0.71436744  0.84176948  1
  H  H116  1  0.50000000  0.26167088  0.69900099  1
  H  H117  1  0.50000000  0.26175301  0.18925244  1
  H  H118  1  0.50000000  0.26164006  0.95449246  1
  H  H119  1  0.50000000  0.26170737  0.44401338  1
  H  H120  1  0.50000000  0.26170737  0.55598662  1
  H  H121  1  0.50000000  0.26164006  0.04550754  1
  H  H122  1  0.50000000  0.26175301  0.81074756  1
  H  H123  1  0.50000000  0.26167088  0.30099901  1
  H  H124  1  0.50000000  0.73832912  0.69900099  1
  H  H125  1  0.50000000  0.73835994  0.95449246  1
  H  H126  1  0.50000000  0.73829264  0.55598662  1
  H  H127  1  0.50000000  0.73824699  0.81074756  1
  H  H128  1  0.50000000  0.70789213  0.16959241  1
  H  H129  1  0.50000000  0.70785171  0.42481971  1
  H  H130  1  0.50000000  0.70803666  0.06468290  1
  H  H131  1  0.50000000  0.70788836  0.32010005  1
