# generated using pymatgen
data_H7C18
_symmetry_space_group_name_H-M   'P 1'
_cell_length_a   20.00000000
_cell_length_b   40.19450000
_cell_length_c   17.16272454
_cell_angle_alpha   90.00000000
_cell_angle_beta   90.00000000
_cell_angle_gamma   90.00000000
_symmetry_Int_Tables_number   1
_chemical_formula_structural   H7C18
_chemical_formula_sum   'H28 C72'
_cell_volume   13796.94262662
_cell_formula_units_Z   4
loop_
 _symmetry_equiv_pos_site_id
 _symmetry_equiv_pos_as_xyz
  1  'x, y, z'
loop_
 _atom_site_type_symbol
 _atom_site_label
 _atom_site_symmetry_multiplicity
 _atom_site_fract_x
 _atom_site_fract_y
 _atom_site_fract_z
 _atom_site_occupancy
  C  C0  1  0.50000000  0.28562999  0.66498528  1
  C  C1  1  0.50000000  0.28558015  0.91562290  1
  C  C2  1  0.50000000  0.31558981  0.70808464  1
  C  C3  1  0.50000000  0.31545182  0.95877169  1
  C  C4  1  0.50000000  0.28565725  0.58473332  1
  C  C5  1  0.50000000  0.28563256  0.83520042  1
  C  C6  1  0.50000000  0.34627032  0.66664874  1
  C  C7  1  0.50000000  0.34617843  0.91720059  1
  C  C8  1  0.50000000  0.37713478  0.70850292  1
  C  C9  1  0.50000000  0.37712491  0.95853734  1
  C  C10  1  0.50000000  0.31562875  0.54173132  1
  C  C11  1  0.50000000  0.31558972  0.79227944  1
  C  C12  1  0.50000000  0.34629806  0.58316836  1
  C  C13  1  0.50000000  0.34624695  0.83370989  1
  C  C14  1  0.50000000  0.40778477  0.66668888  1
  C  C15  1  0.50000000  0.40778188  0.16619611  1
  C  C16  1  0.50000000  0.40774816  0.91685384  1
  C  C17  1  0.50000000  0.40781080  0.41638435  1
  C  C18  1  0.50000000  0.43848332  0.70823460  1
  C  C19  1  0.50000000  0.43847983  0.20785033  1
  C  C20  1  0.50000000  0.43850679  0.95818014  1
  C  C21  1  0.50000000  0.43849170  0.45803286  1
  C  C22  1  0.50000000  0.37716327  0.54128251  1
  C  C23  1  0.50000000  0.37711010  0.79171616  1
  C  C24  1  0.50000000  0.40781080  0.58302409  1
  C  C25  1  0.50000000  0.40774816  0.08255461  1
  C  C26  1  0.50000000  0.40778188  0.83321234  1
  C  C27  1  0.50000000  0.40778477  0.33271957  1
  C  C28  1  0.50000000  0.46928420  0.66644549  1
  C  C29  1  0.50000000  0.46928416  0.16621285  1
  C  C30  1  0.50000000  0.46927624  0.91652897  1
  C  C31  1  0.50000000  0.46929275  0.41626908  1
  C  C32  1  0.50000000  0.50000000  0.70806531  1
  C  C33  1  0.50000000  0.50000000  0.95800390  1
  C  C34  1  0.50000000  0.43849170  0.54137558  1
  C  C35  1  0.50000000  0.43850679  0.04122830  1
  C  C36  1  0.50000000  0.43847983  0.79155812  1
  C  C37  1  0.50000000  0.43848332  0.29117385  1
  C  C38  1  0.50000000  0.46929275  0.58313937  1
  C  C39  1  0.50000000  0.46927624  0.08287949  1
  C  C40  1  0.50000000  0.46928416  0.83319560  1
  C  C41  1  0.50000000  0.46928420  0.33296295  1
  C  C42  1  0.50000000  0.53071580  0.66644549  1
  C  C43  1  0.50000000  0.53072376  0.91652897  1
  C  C44  1  0.50000000  0.56151668  0.70823459  1
  C  C45  1  0.50000000  0.56149321  0.95818014  1
  C  C46  1  0.50000000  0.50000000  0.54148415  1
  C  C47  1  0.50000000  0.50000000  0.79160930  1
  C  C48  1  0.50000000  0.53070725  0.58313937  1
  C  C49  1  0.50000000  0.53071584  0.83319560  1
  C  C50  1  0.50000000  0.59221523  0.66668888  1
  C  C51  1  0.50000000  0.59225184  0.91685384  1
  C  C52  1  0.50000000  0.62286522  0.70850292  1
  C  C53  1  0.50000000  0.62287509  0.95853734  1
  C  C54  1  0.50000000  0.56150831  0.54137558  1
  C  C55  1  0.50000000  0.56152017  0.79155811  1
  C  C56  1  0.50000000  0.59218921  0.58302409  1
  C  C57  1  0.50000000  0.59221813  0.83321234  1
  C  C58  1  0.50000000  0.65372968  0.66664874  1
  C  C59  1  0.50000000  0.65382157  0.91720060  1
  C  C60  1  0.50000000  0.68441020  0.70808464  1
  C  C61  1  0.50000000  0.68454819  0.95877170  1
  C  C62  1  0.50000000  0.62283673  0.54128251  1
  C  C63  1  0.50000000  0.62288991  0.79171616  1
  C  C64  1  0.50000000  0.65370194  0.58316836  1
  C  C65  1  0.50000000  0.65375306  0.83370989  1
  C  C66  1  0.50000000  0.71437001  0.66498527  1
  C  C67  1  0.50000000  0.71441985  0.91562290  1
  C  C68  1  0.50000000  0.68437125  0.54173132  1
  C  C69  1  0.50000000  0.68441028  0.79227944  1
  C  C70  1  0.50000000  0.71434275  0.58473332  1
  C  C71  1  0.50000000  0.71436744  0.83520042  1
  H  H72  1  0.50000000  0.26167088  0.69505249  1
  H  H73  1  0.50000000  0.26164006  0.94585433  1
  H  H74  1  0.50000000  0.26170737  0.55466319  1
  H  H75  1  0.50000000  0.26175301  0.80474791  1
  H  H76  1  0.50000000  0.73832912  0.69505249  1
  H  H77  1  0.50000000  0.73835994  0.94585432  1
  H  H78  1  0.50000000  0.73829264  0.55466319  1
  H  H79  1  0.50000000  0.73824699  0.80474791  1
  H  H80  1  0.50000000  0.68438031  0.47822160  1
  H  H81  1  0.50000000  0.31492221  0.47824316  1
  H  H82  1  0.50000000  0.62275131  0.47777310  1
  H  H83  1  0.50000000  0.38430969  0.19800288  1
  H  H84  1  0.50000000  0.38433568  0.44817927  1
  H  H85  1  0.50000000  0.37712056  0.47777286  1
  H  H86  1  0.50000000  0.38425037  0.05085169  1
  H  H87  1  0.50000000  0.38428991  0.30100478  1
  H  H88  1  0.50000000  0.56147544  0.47786591  1
  H  H89  1  0.50000000  0.49276717  0.19797578  1
  H  H90  1  0.50000000  0.49279416  0.44795727  1
  H  H91  1  0.50000000  0.49276783  0.05115139  1
  H  H92  1  0.50000000  0.49278920  0.30128936  1
  H  H93  1  0.50000000  0.49996188  0.47797449  1
  H  H94  1  0.50000000  0.31466371  0.02225459  1
  H  H95  1  0.50000000  0.37726763  0.02204618  1
  H  H96  1  0.50000000  0.50001915  0.02151361  1
  H  H97  1  0.50000000  0.56148002  0.02168986  1
  H  H98  1  0.50000000  0.62279674  0.02204680  1
  H  H99  1  0.50000000  0.68454124  0.02228142  1
