# generated using pymatgen
data_H5C24
_symmetry_space_group_name_H-M   'P 1'
_cell_length_a   20.00000000
_cell_length_b   40.19450000
_cell_length_c   16.83965260
_cell_angle_alpha   90.00000000
_cell_angle_beta   90.00000000
_cell_angle_gamma   90.00000000
_symmetry_Int_Tables_number   1
_chemical_formula_structural   H5C24
_chemical_formula_sum   'H20 C96'
_cell_volume   13537.22832809
_cell_formula_units_Z   4
loop_
 _symmetry_equiv_pos_site_id
 _symmetry_equiv_pos_as_xyz
  1  'x, y, z'
loop_
 _atom_site_type_symbol
 _atom_site_label
 _atom_site_symmetry_multiplicity
 _atom_site_fract_x
 _atom_site_fract_y
 _atom_site_fract_z
 _atom_site_occupancy
  C  C0  1  0.50000000  0.28562999  0.66833257  1
  C  C1  1  0.50000000  0.28558015  0.92377873  1
  C  C2  1  0.50000000  0.31558981  0.71225881  1
  C  C3  1  0.50000000  0.31545182  0.96775534  1
  C  C4  1  0.50000000  0.28565725  0.58654097  1
  C  C5  1  0.50000000  0.28563256  0.84181332  1
  C  C6  1  0.50000000  0.34627032  0.67002795  1
  C  C7  1  0.50000000  0.34617843  0.92538669  1
  C  C8  1  0.50000000  0.37713478  0.71268511  1
  C  C9  1  0.50000000  0.37711009  0.20226633  1
  C  C10  1  0.50000000  0.37712491  0.96751648  1
  C  C11  1  0.50000000  0.37716327  0.45750459  1
  C  C12  1  0.50000000  0.31562875  0.54271397  1
  C  C13  1  0.50000000  0.31558972  0.79806890  1
  C  C14  1  0.50000000  0.34629806  0.58494598  1
  C  C15  1  0.50000000  0.34624695  0.84029420  1
  C  C16  1  0.50000000  0.40778477  0.67006886  1
  C  C17  1  0.50000000  0.40778188  0.15997404  1
  C  C18  1  0.50000000  0.40774816  0.92503328  1
  C  C19  1  0.50000000  0.40781080  0.41496219  1
  C  C20  1  0.50000000  0.43848332  0.71241164  1
  C  C21  1  0.50000000  0.43847983  0.20242741  1
  C  C22  1  0.50000000  0.43850679  0.96715244  1
  C  C23  1  0.50000000  0.43849170  0.45740974  1
  C  C24  1  0.50000000  0.37716327  0.54225655  1
  C  C25  1  0.50000000  0.37712491  0.03224466  1
  C  C26  1  0.50000000  0.37711010  0.79749482  1
  C  C27  1  0.50000000  0.37713478  0.28707603  1
  C  C28  1  0.50000000  0.40781080  0.58479895  1
  C  C29  1  0.50000000  0.40774816  0.07472786  1
  C  C30  1  0.50000000  0.40778188  0.83978710  1
  C  C31  1  0.50000000  0.40778477  0.32969228  1
  C  C32  1  0.50000000  0.46928420  0.66982080  1
  C  C33  1  0.50000000  0.46928416  0.15999110  1
  C  C34  1  0.50000000  0.46927624  0.92470218  1
  C  C35  1  0.50000000  0.46929275  0.41484471  1
  C  C36  1  0.50000000  0.50000000  0.71223911  1
  C  C37  1  0.50000000  0.50000000  0.20237524  1
  C  C38  1  0.50000000  0.50000000  0.96697282  1
  C  C39  1  0.50000000  0.50000000  0.45729909  1
  C  C40  1  0.50000000  0.43849170  0.54235141  1
  C  C41  1  0.50000000  0.43850679  0.03260870  1
  C  C42  1  0.50000000  0.43847983  0.79733374  1
  C  C43  1  0.50000000  0.43848332  0.28734951  1
  C  C44  1  0.50000000  0.46929275  0.58491644  1
  C  C45  1  0.50000000  0.46927624  0.07505897  1
  C  C46  1  0.50000000  0.46928416  0.83977004  1
  C  C47  1  0.50000000  0.46928420  0.32994034  1
  C  C48  1  0.50000000  0.53071580  0.66982080  1
  C  C49  1  0.50000000  0.53071584  0.15999111  1
  C  C50  1  0.50000000  0.53072376  0.92470218  1
  C  C51  1  0.50000000  0.53070725  0.41484471  1
  C  C52  1  0.50000000  0.56151668  0.71241164  1
  C  C53  1  0.50000000  0.56152017  0.20242741  1
  C  C54  1  0.50000000  0.56149321  0.96715244  1
  C  C55  1  0.50000000  0.56150831  0.45740974  1
  C  C56  1  0.50000000  0.50000000  0.54246206  1
  C  C57  1  0.50000000  0.50000000  0.03278832  1
  C  C58  1  0.50000000  0.50000000  0.79738590  1
  C  C59  1  0.50000000  0.50000000  0.28752204  1
  C  C60  1  0.50000000  0.53070725  0.58491644  1
  C  C61  1  0.50000000  0.53072376  0.07505897  1
  C  C62  1  0.50000000  0.53071584  0.83977004  1
  C  C63  1  0.50000000  0.53071580  0.32994034  1
  C  C64  1  0.50000000  0.59221523  0.67006886  1
  C  C65  1  0.50000000  0.59221813  0.15997404  1
  C  C66  1  0.50000000  0.59225184  0.92503329  1
  C  C67  1  0.50000000  0.59218921  0.41496220  1
  C  C68  1  0.50000000  0.62286522  0.71268511  1
  C  C69  1  0.50000000  0.62288991  0.20226633  1
  C  C70  1  0.50000000  0.62287509  0.96751649  1
  C  C71  1  0.50000000  0.62283673  0.45750460  1
  C  C72  1  0.50000000  0.56150831  0.54235141  1
  C  C73  1  0.50000000  0.56149321  0.03260871  1
  C  C74  1  0.50000000  0.56152017  0.79733374  1
  C  C75  1  0.50000000  0.56151668  0.28734951  1
  C  C76  1  0.50000000  0.59218921  0.58479895  1
  C  C77  1  0.50000000  0.59225185  0.07472786  1
  C  C78  1  0.50000000  0.59221813  0.83978710  1
  C  C79  1  0.50000000  0.59221523  0.32969229  1
  C  C80  1  0.50000000  0.65372968  0.67002795  1
  C  C81  1  0.50000000  0.65382157  0.92538669  1
  C  C82  1  0.50000000  0.68441020  0.71225880  1
  C  C83  1  0.50000000  0.68454819  0.96775534  1
  C  C84  1  0.50000000  0.62283673  0.54225655  1
  C  C85  1  0.50000000  0.62287509  0.03224466  1
  C  C86  1  0.50000000  0.62288991  0.79749482  1
  C  C87  1  0.50000000  0.62286522  0.28707604  1
  C  C88  1  0.50000000  0.65370194  0.58494598  1
  C  C89  1  0.50000000  0.65375306  0.84029420  1
  C  C90  1  0.50000000  0.71437001  0.66833257  1
  C  C91  1  0.50000000  0.71441985  0.92377873  1
  C  C92  1  0.50000000  0.68437125  0.54271397  1
  C  C93  1  0.50000000  0.68441028  0.79806890  1
  C  C94  1  0.50000000  0.71434275  0.58654097  1
  C  C95  1  0.50000000  0.71436744  0.84181332  1
  H  H96  1  0.50000000  0.26167088  0.69897663  1
  H  H97  1  0.50000000  0.26164006  0.95459015  1
  H  H98  1  0.50000000  0.26170737  0.55589394  1
  H  H99  1  0.50000000  0.26175301  0.81077658  1
  H  H100  1  0.50000000  0.73832912  0.69897663  1
  H  H101  1  0.50000000  0.73835994  0.95459015  1
  H  H102  1  0.50000000  0.73829264  0.55589394  1
  H  H103  1  0.50000000  0.73824699  0.81077658  1
  H  H104  1  0.50000000  0.68438031  0.47798580  1
  H  H105  1  0.50000000  0.31492221  0.47800777  1
  H  H106  1  0.50000000  0.64637827  0.16991618  1
  H  H107  1  0.50000000  0.64636432  0.42531726  1
  H  H108  1  0.50000000  0.64637006  0.06456749  1
  H  H109  1  0.50000000  0.64634079  0.31947906  1
  H  H110  1  0.50000000  0.35361569  0.16994120  1
  H  H111  1  0.50000000  0.35367828  0.42514051  1
  H  H112  1  0.50000000  0.35362995  0.06456749  1
  H  H113  1  0.50000000  0.35365921  0.31947906  1
  H  H114  1  0.50000000  0.31466371  0.03245617  1
  H  H115  1  0.50000000  0.68454124  0.03248351  1
