# generated using pymatgen
data_H29C64
_symmetry_space_group_name_H-M   'P 1'
_cell_length_a   20.00000000
_cell_length_b   40.19450000
_cell_length_c   16.64463488
_cell_angle_alpha   90.00000000
_cell_angle_beta   90.00000000
_cell_angle_gamma   90.00000000
_symmetry_Int_Tables_number   1
_chemical_formula_structural   H29C64
_chemical_formula_sum   'H29 C64'
_cell_volume   13380.45553437
_cell_formula_units_Z   1
loop_
 _symmetry_equiv_pos_site_id
 _symmetry_equiv_pos_as_xyz
  1  'x, y, z'
loop_
 _atom_site_type_symbol
 _atom_site_label
 _atom_site_symmetry_multiplicity
 _atom_site_fract_x
 _atom_site_fract_y
 _atom_site_fract_z
 _atom_site_occupancy
  C  C0  1  0.50000000  0.28562999  0.66536902  1
  C  C1  1  0.50000000  0.28563256  0.14900432  1
  C  C2  1  0.50000000  0.28558015  0.92380813  1
  C  C3  1  0.50000000  0.28565725  0.40726759  1
  C  C4  1  0.50000000  0.31558981  0.70980992  1
  C  C5  1  0.50000000  0.31545182  0.96829999  1
  C  C6  1  0.50000000  0.28565725  0.58261910  1
  C  C7  1  0.50000000  0.28558015  0.06607857  1
  C  C8  1  0.50000000  0.28563256  0.84088237  1
  C  C9  1  0.50000000  0.28563000  0.32451767  1
  C  C10  1  0.50000000  0.34627032  0.66708427  1
  C  C11  1  0.50000000  0.34617843  0.92543493  1
  C  C12  1  0.50000000  0.37713478  0.71024122  1
  C  C13  1  0.50000000  0.37712491  0.96805834  1
  C  C14  1  0.50000000  0.31562875  0.53827860  1
  C  C15  1  0.50000000  0.31558972  0.79662542  1
  C  C16  1  0.50000000  0.34629806  0.58100543  1
  C  C17  1  0.50000000  0.34624695  0.83934545  1
  C  C18  1  0.50000000  0.40778477  0.66712565  1
  C  C19  1  0.50000000  0.40774816  0.92507738  1
  C  C20  1  0.50000000  0.43848332  0.70996454  1
  C  C21  1  0.50000000  0.43850679  0.96769003  1
  C  C22  1  0.50000000  0.37716327  0.53781582  1
  C  C23  1  0.50000000  0.37711010  0.79604460  1
  C  C24  1  0.50000000  0.40781080  0.58085667  1
  C  C25  1  0.50000000  0.40778188  0.83883241  1
  C  C26  1  0.50000000  0.46928420  0.66687469  1
  C  C27  1  0.50000000  0.46927624  0.92474240  1
  C  C28  1  0.50000000  0.50000000  0.70978999  1
  C  C29  1  0.50000000  0.50000000  0.96750830  1
  C  C30  1  0.50000000  0.43849170  0.53791179  1
  C  C31  1  0.50000000  0.43847983  0.79588164  1
  C  C32  1  0.50000000  0.46929275  0.58097554  1
  C  C33  1  0.50000000  0.46928416  0.83881515  1
  C  C34  1  0.50000000  0.53071580  0.66687469  1
  C  C35  1  0.50000000  0.53072376  0.92474240  1
  C  C36  1  0.50000000  0.56151668  0.70996454  1
  C  C37  1  0.50000000  0.56149321  0.96769003  1
  C  C38  1  0.50000000  0.50000000  0.53802374  1
  C  C39  1  0.50000000  0.50000000  0.79593441  1
  C  C40  1  0.50000000  0.53070725  0.58097554  1
  C  C41  1  0.50000000  0.53071584  0.83881515  1
  C  C42  1  0.50000000  0.59221523  0.66712565  1
  C  C43  1  0.50000000  0.59225184  0.92507738  1
  C  C44  1  0.50000000  0.62286522  0.71024122  1
  C  C45  1  0.50000000  0.62287509  0.96805834  1
  C  C46  1  0.50000000  0.56150831  0.53791179  1
  C  C47  1  0.50000000  0.56152017  0.79588163  1
  C  C48  1  0.50000000  0.59218921  0.58085667  1
  C  C49  1  0.50000000  0.59221813  0.83883241  1
  C  C50  1  0.50000000  0.65372968  0.66708427  1
  C  C51  1  0.50000000  0.65382157  0.92543493  1
  C  C52  1  0.50000000  0.68441020  0.70980992  1
  C  C53  1  0.50000000  0.68454819  0.96830000  1
  C  C54  1  0.50000000  0.62283673  0.53781582  1
  C  C55  1  0.50000000  0.62288991  0.79604460  1
  C  C56  1  0.50000000  0.65370194  0.58100543  1
  C  C57  1  0.50000000  0.65375306  0.83934545  1
  C  C58  1  0.50000000  0.71437001  0.66536902  1
  C  C59  1  0.50000000  0.71441985  0.92380812  1
  C  C60  1  0.50000000  0.68437125  0.53827860  1
  C  C61  1  0.50000000  0.68441028  0.79662542  1
  C  C62  1  0.50000000  0.71434275  0.58261910  1
  C  C63  1  0.50000000  0.71436744  0.84088237  1
  H  H64  1  0.50000000  0.26167088  0.69637213  1
  H  H65  1  0.50000000  0.26175301  0.18040471  1
  H  H66  1  0.50000000  0.26164006  0.95498055  1
  H  H67  1  0.50000000  0.26170737  0.43827370  1
  H  H68  1  0.50000000  0.26170737  0.55161299  1
  H  H69  1  0.50000000  0.26164006  0.03490614  1
  H  H70  1  0.50000000  0.26175301  0.80948198  1
  H  H71  1  0.50000000  0.26167088  0.29351457  1
  H  H72  1  0.50000000  0.73832912  0.69637212  1
  H  H73  1  0.50000000  0.73835994  0.95498055  1
  H  H74  1  0.50000000  0.73829264  0.55161299  1
  H  H75  1  0.50000000  0.73824699  0.80948198  1
  H  H76  1  0.50000000  0.68438031  0.47279204  1
  H  H77  1  0.50000000  0.62275131  0.47232958  1
  H  H78  1  0.50000000  0.56147544  0.47242528  1
  H  H79  1  0.50000000  0.49996188  0.47253724  1
  H  H80  1  0.50000000  0.43844537  0.47242532  1
  H  H81  1  0.50000000  0.37712056  0.47232934  1
  H  H82  1  0.50000000  0.30913823  0.18166101  1
  H  H83  1  0.50000000  0.30915302  0.43996576  1
  H  H84  1  0.50000000  0.30866094  0.03170000  1
  H  H85  1  0.50000000  0.30867365  0.28999416  1
  H  H86  1  0.50000000  0.31492221  0.47281427  1
  H  H87  1  0.50000000  0.37726763  0.03354399  1
  H  H88  1  0.50000000  0.43858130  0.03317634  1
  H  H89  1  0.50000000  0.50001915  0.03299485  1
  H  H90  1  0.50000000  0.56148002  0.03317658  1
  H  H91  1  0.50000000  0.62279674  0.03354463  1
  H  H92  1  0.50000000  0.68454124  0.03378656  1
