# generated using pymatgen
data_HC6
_symmetry_space_group_name_H-M   'P 1'
_cell_length_a   20.00000000
_cell_length_b   40.19450000
_cell_length_c   16.83965260
_cell_angle_alpha   90.00000000
_cell_angle_beta   90.00000000
_cell_angle_gamma   90.00000000
_symmetry_Int_Tables_number   1
_chemical_formula_structural   HC6
_chemical_formula_sum   'H18 C108'
_cell_volume   13537.22832809
_cell_formula_units_Z   18
loop_
 _symmetry_equiv_pos_site_id
 _symmetry_equiv_pos_as_xyz
  1  'x, y, z'
loop_
 _atom_site_type_symbol
 _atom_site_label
 _atom_site_symmetry_multiplicity
 _atom_site_fract_x
 _atom_site_fract_y
 _atom_site_fract_z
 _atom_site_occupancy
  C  C0  1  0.50000000  0.28562999  0.66845200  1
  C  C1  1  0.50000000  0.28563256  0.15806725  1
  C  C2  1  0.50000000  0.28558015  0.92389816  1
  C  C3  1  0.50000000  0.28565725  0.41333961  1
  C  C4  1  0.50000000  0.31558981  0.71237823  1
  C  C5  1  0.50000000  0.31558972  0.20181167  1
  C  C6  1  0.50000000  0.31545182  0.96787477  1
  C  C7  1  0.50000000  0.31562875  0.45716660  1
  C  C8  1  0.50000000  0.28565725  0.58666039  1
  C  C9  1  0.50000000  0.28558015  0.07610185  1
  C  C10  1  0.50000000  0.28563256  0.84193275  1
  C  C11  1  0.50000000  0.28563000  0.33154800  1
  C  C12  1  0.50000000  0.34627032  0.67014738  1
  C  C13  1  0.50000000  0.34624695  0.15958637  1
  C  C14  1  0.50000000  0.34617843  0.92550612  1
  C  C15  1  0.50000000  0.34629806  0.41493459  1
  C  C16  1  0.50000000  0.37713478  0.71280454  1
  C  C17  1  0.50000000  0.37711009  0.20238576  1
  C  C18  1  0.50000000  0.37712491  0.96763591  1
  C  C19  1  0.50000000  0.37716327  0.45762402  1
  C  C20  1  0.50000000  0.31562875  0.54283340  1
  C  C21  1  0.50000000  0.31545181  0.03212523  1
  C  C22  1  0.50000000  0.31558972  0.79818833  1
  C  C23  1  0.50000000  0.31558981  0.28762177  1
  C  C24  1  0.50000000  0.34629806  0.58506541  1
  C  C25  1  0.50000000  0.34617843  0.07449389  1
  C  C26  1  0.50000000  0.34624695  0.84041363  1
  C  C27  1  0.50000000  0.34627032  0.32985262  1
  C  C28  1  0.50000000  0.40778477  0.67018829  1
  C  C29  1  0.50000000  0.40778188  0.16009347  1
  C  C30  1  0.50000000  0.40774816  0.92515271  1
  C  C31  1  0.50000000  0.40781080  0.41508162  1
  C  C32  1  0.50000000  0.43848332  0.71253107  1
  C  C33  1  0.50000000  0.43847983  0.20254684  1
  C  C34  1  0.50000000  0.43850679  0.96727186  1
  C  C35  1  0.50000000  0.43849170  0.45752916  1
  C  C36  1  0.50000000  0.37716327  0.54237598  1
  C  C37  1  0.50000000  0.37712491  0.03236409  1
  C  C38  1  0.50000000  0.37711010  0.79761425  1
  C  C39  1  0.50000000  0.37713478  0.28719546  1
  C  C40  1  0.50000000  0.40781080  0.58491838  1
  C  C41  1  0.50000000  0.40774816  0.07484729  1
  C  C42  1  0.50000000  0.40778188  0.83990653  1
  C  C43  1  0.50000000  0.40778477  0.32981171  1
  C  C44  1  0.50000000  0.46928420  0.66994023  1
  C  C45  1  0.50000000  0.46928416  0.16011053  1
  C  C46  1  0.50000000  0.46927624  0.92482161  1
  C  C47  1  0.50000000  0.46929275  0.41496413  1
  C  C48  1  0.50000000  0.50000000  0.71235853  1
  C  C49  1  0.50000000  0.50000000  0.20249467  1
  C  C50  1  0.50000000  0.50000000  0.96709225  1
  C  C51  1  0.50000000  0.50000000  0.45741852  1
  C  C52  1  0.50000000  0.43849170  0.54247083  1
  C  C53  1  0.50000000  0.43850679  0.03272813  1
  C  C54  1  0.50000000  0.43847983  0.79745317  1
  C  C55  1  0.50000000  0.43848332  0.28746894  1
  C  C56  1  0.50000000  0.46929275  0.58503586  1
  C  C57  1  0.50000000  0.46927624  0.07517840  1
  C  C58  1  0.50000000  0.46928416  0.83988947  1
  C  C59  1  0.50000000  0.46928420  0.33005977  1
  C  C60  1  0.50000000  0.53071580  0.66994023  1
  C  C61  1  0.50000000  0.53071584  0.16011053  1
  C  C62  1  0.50000000  0.53072376  0.92482161  1
  C  C63  1  0.50000000  0.53070725  0.41496414  1
  C  C64  1  0.50000000  0.56151668  0.71253107  1
  C  C65  1  0.50000000  0.56152017  0.20254684  1
  C  C66  1  0.50000000  0.56149321  0.96727187  1
  C  C67  1  0.50000000  0.56150831  0.45752917  1
  C  C68  1  0.50000000  0.50000000  0.54258148  1
  C  C69  1  0.50000000  0.50000000  0.03290775  1
  C  C70  1  0.50000000  0.50000000  0.79750533  1
  C  C71  1  0.50000000  0.50000000  0.28764147  1
  C  C72  1  0.50000000  0.53070725  0.58503586  1
  C  C73  1  0.50000000  0.53072376  0.07517840  1
  C  C74  1  0.50000000  0.53071584  0.83988947  1
  C  C75  1  0.50000000  0.53071580  0.33005977  1
  C  C76  1  0.50000000  0.59221523  0.67018829  1
  C  C77  1  0.50000000  0.59221813  0.16009347  1
  C  C78  1  0.50000000  0.59225184  0.92515271  1
  C  C79  1  0.50000000  0.59218921  0.41508162  1
  C  C80  1  0.50000000  0.62286522  0.71280454  1
  C  C81  1  0.50000000  0.62288991  0.20238576  1
  C  C82  1  0.50000000  0.62287509  0.96763592  1
  C  C83  1  0.50000000  0.62283673  0.45762402  1
  C  C84  1  0.50000000  0.56150831  0.54247083  1
  C  C85  1  0.50000000  0.56149321  0.03272813  1
  C  C86  1  0.50000000  0.56152017  0.79745316  1
  C  C87  1  0.50000000  0.56151668  0.28746894  1
  C  C88  1  0.50000000  0.59218921  0.58491838  1
  C  C89  1  0.50000000  0.59225185  0.07484729  1
  C  C90  1  0.50000000  0.59221813  0.83990653  1
  C  C91  1  0.50000000  0.59221523  0.32981171  1
  C  C92  1  0.50000000  0.65372968  0.67014738  1
  C  C93  1  0.50000000  0.65382157  0.92550612  1
  C  C94  1  0.50000000  0.68441020  0.71237823  1
  C  C95  1  0.50000000  0.68454819  0.96787477  1
  C  C96  1  0.50000000  0.62283673  0.54237597  1
  C  C97  1  0.50000000  0.62287509  0.03236409  1
  C  C98  1  0.50000000  0.62288991  0.79761424  1
  C  C99  1  0.50000000  0.62286522  0.28719546  1
  C  C100  1  0.50000000  0.65370194  0.58506541  1
  C  C101  1  0.50000000  0.65375306  0.84041363  1
  C  C102  1  0.50000000  0.71437001  0.66845200  1
  C  C103  1  0.50000000  0.71441985  0.92389815  1
  C  C104  1  0.50000000  0.68437125  0.54283340  1
  C  C105  1  0.50000000  0.68441028  0.79818833  1
  C  C106  1  0.50000000  0.71434275  0.58666040  1
  C  C107  1  0.50000000  0.71436744  0.84193275  1
  H  H108  1  0.50000000  0.26167088  0.69909606  1
  H  H109  1  0.50000000  0.26175301  0.18910400  1
  H  H110  1  0.50000000  0.26164006  0.95470958  1
  H  H111  1  0.50000000  0.26170737  0.44398664  1
  H  H112  1  0.50000000  0.26170737  0.55601336  1
  H  H113  1  0.50000000  0.26164006  0.04529043  1
  H  H114  1  0.50000000  0.26175301  0.81089601  1
  H  H115  1  0.50000000  0.26167088  0.30090394  1
  H  H116  1  0.50000000  0.73832912  0.69909606  1
  H  H117  1  0.50000000  0.73835994  0.95470957  1
  H  H118  1  0.50000000  0.73829264  0.55601336  1
  H  H119  1  0.50000000  0.73824699  0.81089601  1
  H  H120  1  0.50000000  0.68438031  0.47810523  1
  H  H121  1  0.50000000  0.64637827  0.17003561  1
  H  H122  1  0.50000000  0.64636432  0.42543668  1
  H  H123  1  0.50000000  0.64637006  0.06468692  1
  H  H124  1  0.50000000  0.64634079  0.31959849  1
  H  H125  1  0.50000000  0.68454124  0.03260294  1
