# generated using pymatgen
data_H9C56
_symmetry_space_group_name_H-M   'P 1'
_cell_length_a   20.00000000
_cell_length_b   40.19450000
_cell_length_c   17.17333845
_cell_angle_alpha   90.00000000
_cell_angle_beta   90.00000000
_cell_angle_gamma   90.00000000
_symmetry_Int_Tables_number   1
_chemical_formula_structural   H9C56
_chemical_formula_sum   'H18 C112'
_cell_volume   13805.47504999
_cell_formula_units_Z   2
loop_
 _symmetry_equiv_pos_site_id
 _symmetry_equiv_pos_as_xyz
  1  'x, y, z'
loop_
 _atom_site_type_symbol
 _atom_site_label
 _atom_site_symmetry_multiplicity
 _atom_site_fract_x
 _atom_site_fract_y
 _atom_site_fract_z
 _atom_site_occupancy
  C  C0  1  0.50000000  0.28562999  0.66517890  1
  C  C1  1  0.50000000  0.28563256  0.16471116  1
  C  C2  1  0.50000000  0.28558015  0.91566162  1
  C  C3  1  0.50000000  0.28565725  0.41502346  1
  C  C4  1  0.50000000  0.31558981  0.70825163  1
  C  C5  1  0.50000000  0.31558972  0.20760561  1
  C  C6  1  0.50000000  0.31545182  0.95878375  1
  C  C7  1  0.50000000  0.31562875  0.45799888  1
  C  C8  1  0.50000000  0.28565725  0.58497654  1
  C  C9  1  0.50000000  0.28558015  0.08433838  1
  C  C10  1  0.50000000  0.28563256  0.83528884  1
  C  C11  1  0.50000000  0.28563000  0.33482110  1
  C  C12  1  0.50000000  0.34627032  0.66684134  1
  C  C13  1  0.50000000  0.34624695  0.16620076  1
  C  C14  1  0.50000000  0.34617843  0.91723834  1
  C  C15  1  0.50000000  0.34629806  0.41658745  1
  C  C16  1  0.50000000  0.37713478  0.70866965  1
  C  C17  1  0.50000000  0.37711009  0.20816854  1
  C  C18  1  0.50000000  0.37712491  0.95854953  1
  C  C19  1  0.50000000  0.37716327  0.45844741  1
  C  C20  1  0.50000000  0.31562875  0.54200113  1
  C  C21  1  0.50000000  0.31545181  0.04121625  1
  C  C22  1  0.50000000  0.31558972  0.79239440  1
  C  C23  1  0.50000000  0.31558981  0.29174837  1
  C  C24  1  0.50000000  0.34629806  0.58341255  1
  C  C25  1  0.50000000  0.34617843  0.08276167  1
  C  C26  1  0.50000000  0.34624695  0.83379924  1
  C  C27  1  0.50000000  0.34627032  0.33315866  1
  C  C28  1  0.50000000  0.40778477  0.66688145  1
  C  C29  1  0.50000000  0.40778188  0.16669801  1
  C  C30  1  0.50000000  0.40774816  0.91689180  1
  C  C31  1  0.50000000  0.40781080  0.41673162  1
  C  C32  1  0.50000000  0.43848332  0.70840149  1
  C  C33  1  0.50000000  0.43847983  0.20832649  1
  C  C34  1  0.50000000  0.43850679  0.95819256  1
  C  C35  1  0.50000000  0.43849170  0.45835439  1
  C  C36  1  0.50000000  0.37716327  0.54155259  1
  C  C37  1  0.50000000  0.37712491  0.04145047  1
  C  C38  1  0.50000000  0.37711010  0.79183146  1
  C  C39  1  0.50000000  0.37713478  0.29133035  1
  C  C40  1  0.50000000  0.40781080  0.58326837  1
  C  C41  1  0.50000000  0.40774816  0.08310820  1
  C  C42  1  0.50000000  0.40778188  0.83330199  1
  C  C43  1  0.50000000  0.40778477  0.33311855  1
  C  C44  1  0.50000000  0.46928420  0.66663822  1
  C  C45  1  0.50000000  0.46928416  0.16671474  1
  C  C46  1  0.50000000  0.46927624  0.91656713  1
  C  C47  1  0.50000000  0.46929275  0.41661642  1
  C  C48  1  0.50000000  0.50000000  0.70823231  1
  C  C49  1  0.50000000  0.50000000  0.20827534  1
  C  C50  1  0.50000000  0.50000000  0.95801643  1
  C  C51  1  0.50000000  0.50000000  0.45824589  1
  C  C52  1  0.50000000  0.43849170  0.54164561  1
  C  C53  1  0.50000000  0.43850679  0.04180744  1
  C  C54  1  0.50000000  0.43847983  0.79167351  1
  C  C55  1  0.50000000  0.43848332  0.29159851  1
  C  C56  1  0.50000000  0.46929275  0.58338358  1
  C  C57  1  0.50000000  0.46927624  0.08343288  1
  C  C58  1  0.50000000  0.46928416  0.83328526  1
  C  C59  1  0.50000000  0.46928420  0.33336178  1
  C  C60  1  0.50000000  0.53071580  0.66663822  1
  C  C61  1  0.50000000  0.53071584  0.16671474  1
  C  C62  1  0.50000000  0.53072376  0.91656713  1
  C  C63  1  0.50000000  0.53070725  0.41661642  1
  C  C64  1  0.50000000  0.56151668  0.70840149  1
  C  C65  1  0.50000000  0.56152017  0.20832649  1
  C  C66  1  0.50000000  0.56149321  0.95819256  1
  C  C67  1  0.50000000  0.56150831  0.45835439  1
  C  C68  1  0.50000000  0.50000000  0.54175411  1
  C  C69  1  0.50000000  0.50000000  0.04198357  1
  C  C70  1  0.50000000  0.50000000  0.79172467  1
  C  C71  1  0.50000000  0.50000000  0.29176769  1
  C  C72  1  0.50000000  0.53070725  0.58338358  1
  C  C73  1  0.50000000  0.53072376  0.08343288  1
  C  C74  1  0.50000000  0.53071584  0.83328526  1
  C  C75  1  0.50000000  0.53071580  0.33336178  1
  C  C76  1  0.50000000  0.59221523  0.66688145  1
  C  C77  1  0.50000000  0.59221813  0.16669801  1
  C  C78  1  0.50000000  0.59225184  0.91689180  1
  C  C79  1  0.50000000  0.59218921  0.41673163  1
  C  C80  1  0.50000000  0.62286522  0.70866965  1
  C  C81  1  0.50000000  0.62288991  0.20816854  1
  C  C82  1  0.50000000  0.62287509  0.95854954  1
  C  C83  1  0.50000000  0.62283673  0.45844741  1
  C  C84  1  0.50000000  0.56150831  0.54164561  1
  C  C85  1  0.50000000  0.56149321  0.04180744  1
  C  C86  1  0.50000000  0.56152017  0.79167351  1
  C  C87  1  0.50000000  0.56151668  0.29159851  1
  C  C88  1  0.50000000  0.59218921  0.58326837  1
  C  C89  1  0.50000000  0.59225185  0.08310821  1
  C  C90  1  0.50000000  0.59221813  0.83330199  1
  C  C91  1  0.50000000  0.59221523  0.33311855  1
  C  C92  1  0.50000000  0.65372968  0.66684134  1
  C  C93  1  0.50000000  0.65375306  0.16620076  1
  C  C94  1  0.50000000  0.65382157  0.91723834  1
  C  C95  1  0.50000000  0.65370194  0.41658745  1
  C  C96  1  0.50000000  0.68441020  0.70825163  1
  C  C97  1  0.50000000  0.68454819  0.95878375  1
  C  C98  1  0.50000000  0.62283673  0.54155259  1
  C  C99  1  0.50000000  0.62287509  0.04145047  1
  C  C100  1  0.50000000  0.62288991  0.79183146  1
  C  C101  1  0.50000000  0.62286522  0.29133035  1
  C  C102  1  0.50000000  0.65370194  0.58341255  1
  C  C103  1  0.50000000  0.65382157  0.08276167  1
  C  C104  1  0.50000000  0.65375306  0.83379924  1
  C  C105  1  0.50000000  0.65372968  0.33315866  1
  C  C106  1  0.50000000  0.71437001  0.66517890  1
  C  C107  1  0.50000000  0.71441985  0.91566162  1
  C  C108  1  0.50000000  0.68437125  0.54200112  1
  C  C109  1  0.50000000  0.68441028  0.79239439  1
  C  C110  1  0.50000000  0.71434275  0.58497655  1
  C  C111  1  0.50000000  0.71436744  0.83528884  1
  H  H112  1  0.50000000  0.26167088  0.69522753  1
  H  H113  1  0.50000000  0.26175301  0.19514485  1
  H  H114  1  0.50000000  0.26164006  0.94587436  1
  H  H115  1  0.50000000  0.26170737  0.44507500  1
  H  H116  1  0.50000000  0.26170737  0.55492500  1
  H  H117  1  0.50000000  0.26164006  0.05412564  1
  H  H118  1  0.50000000  0.26175301  0.80485516  1
  H  H119  1  0.50000000  0.26167088  0.30477247  1
  H  H120  1  0.50000000  0.73832912  0.69522753  1
  H  H121  1  0.50000000  0.73835994  0.94587436  1
  H  H122  1  0.50000000  0.73829264  0.55492500  1
  H  H123  1  0.50000000  0.73824699  0.80485516  1
  H  H124  1  0.50000000  0.67727486  0.19778633  1
  H  H125  1  0.50000000  0.67720826  0.44823608  1
  H  H126  1  0.50000000  0.67723488  0.05073758  1
  H  H127  1  0.50000000  0.67723171  0.30149257  1
  H  H128  1  0.50000000  0.68438031  0.47853065  1
  H  H129  1  0.50000000  0.68454124  0.02225422  1
