# generated using pymatgen
data_H3C10
_symmetry_space_group_name_H-M   'P 1'
_cell_length_a   20.00000000
_cell_length_b   40.19450000
_cell_length_c   16.82134228
_cell_angle_alpha   90.00000000
_cell_angle_beta   90.00000000
_cell_angle_gamma   90.00000000
_symmetry_Int_Tables_number   1
_chemical_formula_structural   H3C10
_chemical_formula_sum   'H24 C80'
_cell_volume   13522.50884593
_cell_formula_units_Z   8
loop_
 _symmetry_equiv_pos_site_id
 _symmetry_equiv_pos_as_xyz
  1  'x, y, z'
loop_
 _atom_site_type_symbol
 _atom_site_label
 _atom_site_symmetry_multiplicity
 _atom_site_fract_x
 _atom_site_fract_y
 _atom_site_fract_z
 _atom_site_occupancy
  C  C0  1  0.50000000  0.28562999  0.66851581  1
  C  C1  1  0.50000000  0.28558015  0.92424002  1
  C  C2  1  0.50000000  0.31558981  0.71248985  1
  C  C3  1  0.50000000  0.31545182  0.96826450  1
  C  C4  1  0.50000000  0.28565725  0.58663517  1
  C  C5  1  0.50000000  0.28563256  0.84218539  1
  C  C6  1  0.50000000  0.34627032  0.67021303  1
  C  C7  1  0.50000000  0.34617843  0.92584973  1
  C  C8  1  0.50000000  0.37713478  0.71291662  1
  C  C9  1  0.50000000  0.37711009  0.20194224  1
  C  C10  1  0.50000000  0.37712491  0.96802538  1
  C  C11  1  0.50000000  0.37716327  0.45745834  1
  C  C12  1  0.50000000  0.31562875  0.54276047  1
  C  C13  1  0.50000000  0.31558972  0.79839336  1
  C  C14  1  0.50000000  0.34629806  0.58503845  1
  C  C15  1  0.50000000  0.34624695  0.84066462  1
  C  C16  1  0.50000000  0.40778477  0.67025398  1
  C  C17  1  0.50000000  0.40778188  0.15960392  1
  C  C18  1  0.50000000  0.40774816  0.92549594  1
  C  C19  1  0.50000000  0.40781080  0.41486963  1
  C  C20  1  0.50000000  0.43848332  0.71264285  1
  C  C21  1  0.50000000  0.43847983  0.20210350  1
  C  C22  1  0.50000000  0.43850679  0.96766094  1
  C  C23  1  0.50000000  0.43849170  0.45736338  1
  C  C24  1  0.50000000  0.37716327  0.54230254  1
  C  C25  1  0.50000000  0.37712491  0.03173550  1
  C  C26  1  0.50000000  0.37711010  0.79781865  1
  C  C27  1  0.50000000  0.37713478  0.28684426  1
  C  C28  1  0.50000000  0.40781080  0.58489125  1
  C  C29  1  0.50000000  0.40774816  0.07426495  1
  C  C30  1  0.50000000  0.40778188  0.84015697  1
  C  C31  1  0.50000000  0.40778477  0.32950690  1
  C  C32  1  0.50000000  0.46928420  0.67000566  1
  C  C33  1  0.50000000  0.46928416  0.15962100  1
  C  C34  1  0.50000000  0.46927624  0.92516447  1
  C  C35  1  0.50000000  0.46929275  0.41475201  1
  C  C36  1  0.50000000  0.50000000  0.71247013  1
  C  C37  1  0.50000000  0.50000000  0.20205127  1
  C  C38  1  0.50000000  0.50000000  0.96748113  1
  C  C39  1  0.50000000  0.50000000  0.45725261  1
  C  C40  1  0.50000000  0.43849170  0.54239751  1
  C  C41  1  0.50000000  0.43850679  0.03209994  1
  C  C42  1  0.50000000  0.43847983  0.79765739  1
  C  C43  1  0.50000000  0.43848332  0.28711803  1
  C  C44  1  0.50000000  0.46929275  0.58500887  1
  C  C45  1  0.50000000  0.46927624  0.07459642  1
  C  C46  1  0.50000000  0.46928416  0.84013989  1
  C  C47  1  0.50000000  0.46928420  0.32975522  1
  C  C48  1  0.50000000  0.53071580  0.67000566  1
  C  C49  1  0.50000000  0.53072376  0.92516447  1
  C  C50  1  0.50000000  0.56151668  0.71264285  1
  C  C51  1  0.50000000  0.56149321  0.96766094  1
  C  C52  1  0.50000000  0.50000000  0.54250828  1
  C  C53  1  0.50000000  0.50000000  0.03227976  1
  C  C54  1  0.50000000  0.50000000  0.79770961  1
  C  C55  1  0.50000000  0.50000000  0.28729075  1
  C  C56  1  0.50000000  0.53070725  0.58500887  1
  C  C57  1  0.50000000  0.53071584  0.84013989  1
  C  C58  1  0.50000000  0.59221523  0.67025398  1
  C  C59  1  0.50000000  0.59225184  0.92549594  1
  C  C60  1  0.50000000  0.62286522  0.71291662  1
  C  C61  1  0.50000000  0.62287509  0.96802539  1
  C  C62  1  0.50000000  0.56150831  0.54239751  1
  C  C63  1  0.50000000  0.56152017  0.79765739  1
  C  C64  1  0.50000000  0.59218921  0.58489125  1
  C  C65  1  0.50000000  0.59221813  0.84015697  1
  C  C66  1  0.50000000  0.65372968  0.67021303  1
  C  C67  1  0.50000000  0.65382157  0.92584973  1
  C  C68  1  0.50000000  0.68441020  0.71248985  1
  C  C69  1  0.50000000  0.68454819  0.96826450  1
  C  C70  1  0.50000000  0.62283673  0.54230254  1
  C  C71  1  0.50000000  0.62288991  0.79781864  1
  C  C72  1  0.50000000  0.65370194  0.58503845  1
  C  C73  1  0.50000000  0.65375306  0.84066462  1
  C  C74  1  0.50000000  0.71437001  0.66851580  1
  C  C75  1  0.50000000  0.71441985  0.92424002  1
  C  C76  1  0.50000000  0.68437125  0.54276046  1
  C  C77  1  0.50000000  0.68441028  0.79839336  1
  C  C78  1  0.50000000  0.71434275  0.58663517  1
  C  C79  1  0.50000000  0.71436744  0.84218539  1
  H  H80  1  0.50000000  0.26167088  0.69919322  1
  H  H81  1  0.50000000  0.26164006  0.95508498  1
  H  H82  1  0.50000000  0.26170737  0.55595478  1
  H  H83  1  0.50000000  0.26175301  0.81111487  1
  H  H84  1  0.50000000  0.73832912  0.69919322  1
  H  H85  1  0.50000000  0.73835994  0.95508497  1
  H  H86  1  0.50000000  0.73829264  0.55595478  1
  H  H87  1  0.50000000  0.73824699  0.81111487  1
  H  H88  1  0.50000000  0.68438031  0.47796184  1
  H  H89  1  0.50000000  0.31492221  0.47798383  1
  H  H90  1  0.50000000  0.35361569  0.16958192  1
  H  H91  1  0.50000000  0.35367828  0.42505902  1
  H  H92  1  0.50000000  0.35362995  0.06409352  1
  H  H93  1  0.50000000  0.35365921  0.31928256  1
  H  H94  1  0.50000000  0.62275131  0.47750424  1
  H  H95  1  0.50000000  0.56147544  0.47759892  1
  H  H96  1  0.50000000  0.52349267  0.16968376  1
  H  H97  1  0.50000000  0.52350403  0.42493220  1
  H  H98  1  0.50000000  0.52348500  0.06467907  1
  H  H99  1  0.50000000  0.52348500  0.31969007  1
  H  H100  1  0.50000000  0.31466371  0.03303576  1
  H  H101  1  0.50000000  0.56148002  0.03245956  1
  H  H102  1  0.50000000  0.62279674  0.03282375  1
  H  H103  1  0.50000000  0.68454124  0.03306313  1
