# generated using pymatgen
data_H17C60
_symmetry_space_group_name_H-M   'P 1'
_cell_length_a   20.00000000
_cell_length_b   40.19450000
_cell_length_c   25.81370000
_cell_angle_alpha   90.00000000
_cell_angle_beta   90.00000000
_cell_angle_gamma   90.00000000
_symmetry_Int_Tables_number   1
_chemical_formula_structural   H17C60
_chemical_formula_sum   'H34 C120'
_cell_volume   20751.37529300
_cell_formula_units_Z   2
loop_
 _symmetry_equiv_pos_site_id
 _symmetry_equiv_pos_as_xyz
  1  'x, y, z'
loop_
 _atom_site_type_symbol
 _atom_site_label
 _atom_site_symmetry_multiplicity
 _atom_site_fract_x
 _atom_site_fract_y
 _atom_site_fract_z
 _atom_site_occupancy
  C  C0  1  0.50000000  0.28566764  0.10946581  1
  C  C1  1  0.50000000  0.28562999  0.60989022  1
  C  C2  1  0.50000000  0.28563256  0.27693904  1
  C  C3  1  0.50000000  0.28558015  0.77653136  1
  C  C4  1  0.50000000  0.28565725  0.44346681  1
  C  C5  1  0.50000000  0.28604508  0.94482808  1
  C  C6  1  0.50000000  0.31538662  0.13842833  1
  C  C7  1  0.50000000  0.31558981  0.63854564  1
  C  C8  1  0.50000000  0.31558972  0.30547586  1
  C  C9  1  0.50000000  0.31545182  0.80521965  1
  C  C10  1  0.50000000  0.31562875  0.47205749  1
  C  C11  1  0.50000000  0.31601689  0.97156599  1
  C  C12  1  0.50000000  0.28604508  0.05517192  1
  C  C13  1  0.50000000  0.28565725  0.55653319  1
  C  C14  1  0.50000000  0.28558015  0.22346864  1
  C  C15  1  0.50000000  0.28563256  0.72306096  1
  C  C16  1  0.50000000  0.28563000  0.39010978  1
  C  C17  1  0.50000000  0.28566763  0.89053418  1
  C  C18  1  0.50000000  0.34634996  0.11153548  1
  C  C19  1  0.50000000  0.34627032  0.61099621  1
  C  C20  1  0.50000000  0.34624695  0.27793004  1
  C  C21  1  0.50000000  0.34617843  0.77758032  1
  C  C22  1  0.50000000  0.34629806  0.44450730  1
  C  C23  1  0.50000000  0.34670748  0.94428808  1
  C  C24  1  0.50000000  0.37715112  0.13946338  1
  C  C25  1  0.50000000  0.37713478  0.63882375  1
  C  C26  1  0.50000000  0.37711009  0.30585036  1
  C  C27  1  0.50000000  0.37712491  0.80506383  1
  C  C28  1  0.50000000  0.37716327  0.47235589  1
  C  C29  1  0.50000000  0.37741607  0.97054149  1
  C  C30  1  0.50000000  0.31601689  0.02843401  1
  C  C31  1  0.50000000  0.31562875  0.52794251  1
  C  C32  1  0.50000000  0.31545181  0.19478034  1
  C  C33  1  0.50000000  0.31558972  0.69452414  1
  C  C34  1  0.50000000  0.31558981  0.36145436  1
  C  C35  1  0.50000000  0.31538661  0.86157167  1
  C  C36  1  0.50000000  0.34670748  0.05571191  1
  C  C37  1  0.50000000  0.34629806  0.55549270  1
  C  C38  1  0.50000000  0.34617843  0.22241968  1
  C  C39  1  0.50000000  0.34624695  0.72206996  1
  C  C40  1  0.50000000  0.34627032  0.38900379  1
  C  C41  1  0.50000000  0.34634996  0.88846451  1
  C  C42  1  0.50000000  0.40781322  0.11215060  1
  C  C43  1  0.50000000  0.40778477  0.61102289  1
  C  C44  1  0.50000000  0.40778188  0.27826085  1
  C  C45  1  0.50000000  0.40774816  0.77734978  1
  C  C46  1  0.50000000  0.40781080  0.44460321  1
  C  C47  1  0.50000000  0.40798005  0.94390121  1
  C  C48  1  0.50000000  0.43848332  0.63864534  1
  C  C49  1  0.50000000  0.43850679  0.80482635  1
  C  C50  1  0.50000000  0.43866409  0.97029883  1
  C  C51  1  0.50000000  0.37741608  0.02945851  1
  C  C52  1  0.50000000  0.37716327  0.52764411  1
  C  C53  1  0.50000000  0.37712491  0.19493616  1
  C  C54  1  0.50000000  0.37711010  0.69414964  1
  C  C55  1  0.50000000  0.37713478  0.36117625  1
  C  C56  1  0.50000000  0.37715112  0.86053661  1
  C  C57  1  0.50000000  0.40798005  0.05609879  1
  C  C58  1  0.50000000  0.40781080  0.55539678  1
  C  C59  1  0.50000000  0.40774816  0.22265022  1
  C  C60  1  0.50000000  0.40778188  0.72173915  1
  C  C61  1  0.50000000  0.40778477  0.38897711  1
  C  C62  1  0.50000000  0.40781322  0.88784940  1
  C  C63  1  0.50000000  0.46928420  0.61086107  1
  C  C64  1  0.50000000  0.46927624  0.77713378  1
  C  C65  1  0.50000000  0.46932231  0.94382438  1
  C  C66  1  0.50000000  0.50000000  0.63853279  1
  C  C67  1  0.50000000  0.50000000  0.80470917  1
  C  C68  1  0.50000000  0.50000000  0.97025841  1
  C  C69  1  0.50000000  0.43849170  0.52770599  1
  C  C70  1  0.50000000  0.43847983  0.69404456  1
  C  C71  1  0.50000000  0.43855259  0.86028953  1
  C  C72  1  0.50000000  0.46929275  0.55547343  1
  C  C73  1  0.50000000  0.46928416  0.72172802  1
  C  C74  1  0.50000000  0.46928605  0.88776741  1
  C  C75  1  0.50000000  0.53071580  0.61086107  1
  C  C76  1  0.50000000  0.53072376  0.77713378  1
  C  C77  1  0.50000000  0.53067769  0.94382439  1
  C  C78  1  0.50000000  0.56151668  0.63864534  1
  C  C79  1  0.50000000  0.56149321  0.80482635  1
  C  C80  1  0.50000000  0.56133591  0.97029883  1
  C  C81  1  0.50000000  0.50000000  0.52777817  1
  C  C82  1  0.50000000  0.50000000  0.69407859  1
  C  C83  1  0.50000000  0.50000000  0.86028518  1
  C  C84  1  0.50000000  0.53070725  0.55547343  1
  C  C85  1  0.50000000  0.53071584  0.72172802  1
  C  C86  1  0.50000000  0.53071395  0.88776741  1
  C  C87  1  0.50000000  0.59221523  0.61102289  1
  C  C88  1  0.50000000  0.59225184  0.77734978  1
  C  C89  1  0.50000000  0.59201995  0.94390121  1
  C  C90  1  0.50000000  0.62286522  0.63882374  1
  C  C91  1  0.50000000  0.62287509  0.80506384  1
  C  C92  1  0.50000000  0.62258393  0.97054148  1
  C  C93  1  0.50000000  0.56150831  0.52770599  1
  C  C94  1  0.50000000  0.56152017  0.69404455  1
  C  C95  1  0.50000000  0.56144741  0.86028953  1
  C  C96  1  0.50000000  0.59218921  0.55539678  1
  C  C97  1  0.50000000  0.59221813  0.72173915  1
  C  C98  1  0.50000000  0.59218679  0.88784940  1
  C  C99  1  0.50000000  0.65372968  0.61099620  1
  C  C100  1  0.50000000  0.65382157  0.77758032  1
  C  C101  1  0.50000000  0.65329252  0.94428809  1
  C  C102  1  0.50000000  0.68441020  0.63854564  1
  C  C103  1  0.50000000  0.68454819  0.80521965  1
  C  C104  1  0.50000000  0.68398311  0.97156598  1
  C  C105  1  0.50000000  0.62283673  0.52764411  1
  C  C106  1  0.50000000  0.62288991  0.69414964  1
  C  C107  1  0.50000000  0.62284888  0.86053662  1
  C  C108  1  0.50000000  0.65370194  0.55549270  1
  C  C109  1  0.50000000  0.65375306  0.72206996  1
  C  C110  1  0.50000000  0.65365004  0.88846452  1
  C  C111  1  0.50000000  0.71437001  0.60989022  1
  C  C112  1  0.50000000  0.71441985  0.77653136  1
  C  C113  1  0.50000000  0.71395492  0.94482808  1
  C  C114  1  0.50000000  0.68437125  0.52794251  1
  C  C115  1  0.50000000  0.68441028  0.69452414  1
  C  C116  1  0.50000000  0.68461339  0.86157167  1
  C  C117  1  0.50000000  0.71434275  0.55653320  1
  C  C118  1  0.50000000  0.71436744  0.72306096  1
  C  C119  1  0.50000000  0.71433237  0.89053419  1
  H  H120  1  0.50000000  0.26163243  0.12927263  1
  H  H121  1  0.50000000  0.26167088  0.62988097  1
  H  H122  1  0.50000000  0.26175301  0.29718596  1
  H  H123  1  0.50000000  0.26164006  0.79663130  1
  H  H124  1  0.50000000  0.26170737  0.46345950  1
  H  H125  1  0.50000000  0.26239307  0.96598950  1
  H  H126  1  0.50000000  0.26239307  0.03401050  1
  H  H127  1  0.50000000  0.26170737  0.53654050  1
  H  H128  1  0.50000000  0.26164006  0.20336870  1
  H  H129  1  0.50000000  0.26175301  0.70281404  1
  H  H130  1  0.50000000  0.26167088  0.37011903  1
  H  H131  1  0.50000000  0.26163243  0.87072736  1
  H  H132  1  0.50000000  0.73832912  0.62988097  1
  H  H133  1  0.50000000  0.73835994  0.79663129  1
  H  H134  1  0.50000000  0.73760693  0.96598950  1
  H  H135  1  0.50000000  0.73829264  0.53654050  1
  H  H136  1  0.50000000  0.73824699  0.70281404  1
  H  H137  1  0.50000000  0.73836757  0.87072737  1
  H  H138  1  0.50000000  0.68438031  0.48571687  1
  H  H139  1  0.50000000  0.62275131  0.48541868  1
  H  H140  1  0.50000000  0.56180359  0.01251819  1
  H  H141  1  0.50000000  0.62294413  0.01276339  1
  H  H142  1  0.50000000  0.56147544  0.48548038  1
  H  H143  1  0.50000000  0.68411657  0.01379111  1
  H  H144  1  0.50000000  0.50049253  0.01247708  1
  H  H145  1  0.50000000  0.49996188  0.48555258  1
  H  H146  1  0.50000000  0.43124419  0.13340845  1
  H  H147  1  0.50000000  0.43127024  0.29936458  1
  H  H148  1  0.50000000  0.43133839  0.46560073  1
  H  H149  1  0.50000000  0.43917482  0.01251698  1
  H  H150  1  0.50000000  0.43128288  0.03450212  1
  H  H151  1  0.50000000  0.43127223  0.20164315  1
  H  H152  1  0.50000000  0.43132205  0.36800593  1
  H  H153  1  0.50000000  0.43844537  0.48548041  1
