# generated using pymatgen
data_H17C69
_symmetry_space_group_name_H-M   'P 1'
_cell_length_a   10.00000000
_cell_length_b   41.10890000
_cell_length_c   25.57550000
_cell_angle_alpha   90.00000000
_cell_angle_beta   90.00000000
_cell_angle_gamma   90.00000000
_symmetry_Int_Tables_number   1
_chemical_formula_structural   H17C69
_chemical_formula_sum   'H34 C138'
_cell_volume   10513.80671950
_cell_formula_units_Z   2
loop_
 _symmetry_equiv_pos_site_id
 _symmetry_equiv_pos_as_xyz
  1  'x, y, z'
loop_
 _atom_site_type_symbol
 _atom_site_label
 _atom_site_symmetry_multiplicity
 _atom_site_fract_x
 _atom_site_fract_y
 _atom_site_fract_z
 _atom_site_occupancy
  C  C0  1  0.50000000  0.29047118  0.63888878  1
  C  C1  1  0.50000000  0.29047118  0.97222185  1
  C  C2  1  0.50000000  0.35033657  0.63888878  1
  C  C3  1  0.50000000  0.35033657  0.97222185  1
  C  C4  1  0.50000000  0.41020195  0.63888878  1
  C  C5  1  0.50000000  0.41020195  0.97222185  1
  C  C6  1  0.50000000  0.47006733  0.63888878  1
  C  C7  1  0.50000000  0.47006733  0.97222185  1
  C  C8  1  0.50000000  0.52993271  0.30555571  1
  C  C9  1  0.50000000  0.52993271  0.63888878  1
  C  C10  1  0.50000000  0.52993271  0.97222185  1
  C  C11  1  0.50000000  0.58979809  0.30555571  1
  C  C12  1  0.50000000  0.58979809  0.63888878  1
  C  C13  1  0.50000000  0.58979809  0.97222185  1
  C  C14  1  0.50000000  0.64966348  0.30555571  1
  C  C15  1  0.50000000  0.64966348  0.63888878  1
  C  C16  1  0.50000000  0.64966348  0.97222185  1
  C  C17  1  0.50000000  0.70952886  0.63888878  1
  C  C18  1  0.50000000  0.70952886  0.97222185  1
  C  C19  1  0.50000000  0.29047118  0.69444429  1
  C  C20  1  0.50000000  0.35033657  0.69444429  1
  C  C21  1  0.50000000  0.41020195  0.69444429  1
  C  C22  1  0.50000000  0.47006733  0.69444429  1
  C  C23  1  0.50000000  0.52993271  0.02777815  1
  C  C24  1  0.50000000  0.52993271  0.36111122  1
  C  C25  1  0.50000000  0.52993271  0.69444429  1
  C  C26  1  0.50000000  0.58979809  0.02777815  1
  C  C27  1  0.50000000  0.58979809  0.36111122  1
  C  C28  1  0.50000000  0.58979809  0.69444429  1
  C  C29  1  0.50000000  0.64966348  0.02777815  1
  C  C30  1  0.50000000  0.64966348  0.36111122  1
  C  C31  1  0.50000000  0.64966348  0.69444429  1
  C  C32  1  0.50000000  0.70952886  0.69444429  1
  C  C33  1  0.50000000  0.26053847  0.72222205  1
  C  C34  1  0.50000000  0.32040385  0.72222205  1
  C  C35  1  0.50000000  0.38026924  0.72222205  1
  C  C36  1  0.50000000  0.44013462  0.72222205  1
  C  C37  1  0.50000000  0.50000000  0.72222205  1
  C  C38  1  0.50000000  0.55986538  0.05555590  1
  C  C39  1  0.50000000  0.55986538  0.38888898  1
  C  C40  1  0.50000000  0.55986538  0.72222205  1
  C  C41  1  0.50000000  0.61973076  0.05555590  1
  C  C42  1  0.50000000  0.61973076  0.38888898  1
  C  C43  1  0.50000000  0.61973076  0.72222205  1
  C  C44  1  0.50000000  0.67959615  0.05555590  1
  C  C45  1  0.50000000  0.67959615  0.38888898  1
  C  C46  1  0.50000000  0.67959615  0.72222205  1
  C  C47  1  0.50000000  0.73946153  0.72222205  1
  C  C48  1  0.50000000  0.26053847  0.77777756  1
  C  C49  1  0.50000000  0.32040385  0.77777756  1
  C  C50  1  0.50000000  0.38026924  0.77777756  1
  C  C51  1  0.50000000  0.44013462  0.77777756  1
  C  C52  1  0.50000000  0.50000000  0.77777756  1
  C  C53  1  0.50000000  0.55986538  0.11111142  1
  C  C54  1  0.50000000  0.55986538  0.44444449  1
  C  C55  1  0.50000000  0.55986538  0.77777756  1
  C  C56  1  0.50000000  0.61973076  0.11111142  1
  C  C57  1  0.50000000  0.61973076  0.44444449  1
  C  C58  1  0.50000000  0.61973076  0.77777756  1
  C  C59  1  0.50000000  0.67959615  0.11111142  1
  C  C60  1  0.50000000  0.67959615  0.44444449  1
  C  C61  1  0.50000000  0.67959615  0.77777756  1
  C  C62  1  0.50000000  0.73946153  0.77777756  1
  C  C63  1  0.50000000  0.29047118  0.80555532  1
  C  C64  1  0.50000000  0.35033657  0.80555532  1
  C  C65  1  0.50000000  0.41020195  0.80555532  1
  C  C66  1  0.50000000  0.47006733  0.80555532  1
  C  C67  1  0.50000000  0.52993271  0.13888917  1
  C  C68  1  0.50000000  0.52993271  0.47222224  1
  C  C69  1  0.50000000  0.52993271  0.80555532  1
  C  C70  1  0.50000000  0.58979809  0.13888917  1
  C  C71  1  0.50000000  0.58979809  0.47222224  1
  C  C72  1  0.50000000  0.58979809  0.80555532  1
  C  C73  1  0.50000000  0.64966348  0.13888917  1
  C  C74  1  0.50000000  0.64966348  0.47222224  1
  C  C75  1  0.50000000  0.64966348  0.80555532  1
  C  C76  1  0.50000000  0.70952886  0.80555532  1
  C  C77  1  0.50000000  0.29047118  0.52777776  1
  C  C78  1  0.50000000  0.29047118  0.86111083  1
  C  C79  1  0.50000000  0.35033657  0.52777776  1
  C  C80  1  0.50000000  0.35033657  0.86111083  1
  C  C81  1  0.50000000  0.41020195  0.52777776  1
  C  C82  1  0.50000000  0.41020195  0.86111083  1
  C  C83  1  0.50000000  0.47006733  0.52777776  1
  C  C84  1  0.50000000  0.47006733  0.86111083  1
  C  C85  1  0.50000000  0.52993271  0.19444468  1
  C  C86  1  0.50000000  0.52993271  0.52777776  1
  C  C87  1  0.50000000  0.52993271  0.86111083  1
  C  C88  1  0.50000000  0.58979809  0.19444468  1
  C  C89  1  0.50000000  0.58979809  0.52777776  1
  C  C90  1  0.50000000  0.58979809  0.86111083  1
  C  C91  1  0.50000000  0.64966348  0.19444468  1
  C  C92  1  0.50000000  0.64966348  0.52777776  1
  C  C93  1  0.50000000  0.64966348  0.86111083  1
  C  C94  1  0.50000000  0.70952886  0.52777776  1
  C  C95  1  0.50000000  0.70952886  0.86111083  1
  C  C96  1  0.50000000  0.26053847  0.55555551  1
  C  C97  1  0.50000000  0.26053847  0.88888858  1
  C  C98  1  0.50000000  0.32040385  0.55555551  1
  C  C99  1  0.50000000  0.32040385  0.88888858  1
  C  C100  1  0.50000000  0.38026924  0.55555551  1
  C  C101  1  0.50000000  0.38026924  0.88888858  1
  C  C102  1  0.50000000  0.44013462  0.55555551  1
  C  C103  1  0.50000000  0.44013462  0.88888858  1
  C  C104  1  0.50000000  0.50000000  0.55555551  1
  C  C105  1  0.50000000  0.50000000  0.88888858  1
  C  C106  1  0.50000000  0.55986538  0.22222244  1
  C  C107  1  0.50000000  0.55986538  0.55555551  1
  C  C108  1  0.50000000  0.55986538  0.88888858  1
  C  C109  1  0.50000000  0.61973076  0.22222244  1
  C  C110  1  0.50000000  0.61973076  0.55555551  1
  C  C111  1  0.50000000  0.61973076  0.88888858  1
  C  C112  1  0.50000000  0.67959615  0.22222244  1
  C  C113  1  0.50000000  0.67959615  0.55555551  1
  C  C114  1  0.50000000  0.67959615  0.88888858  1
  C  C115  1  0.50000000  0.73946153  0.55555551  1
  C  C116  1  0.50000000  0.73946153  0.88888858  1
  C  C117  1  0.50000000  0.26053847  0.61111102  1
  C  C118  1  0.50000000  0.26053847  0.94444410  1
  C  C119  1  0.50000000  0.32040385  0.61111102  1
  C  C120  1  0.50000000  0.32040385  0.94444410  1
  C  C121  1  0.50000000  0.38026924  0.61111102  1
  C  C122  1  0.50000000  0.38026924  0.94444410  1
  C  C123  1  0.50000000  0.44013462  0.61111102  1
  C  C124  1  0.50000000  0.44013462  0.94444410  1
  C  C125  1  0.50000000  0.50000000  0.61111102  1
  C  C126  1  0.50000000  0.50000000  0.94444410  1
  C  C127  1  0.50000000  0.55986538  0.27777795  1
  C  C128  1  0.50000000  0.55986538  0.61111102  1
  C  C129  1  0.50000000  0.55986538  0.94444410  1
  C  C130  1  0.50000000  0.61973076  0.27777795  1
  C  C131  1  0.50000000  0.61973076  0.61111102  1
  C  C132  1  0.50000000  0.61973076  0.94444410  1
  C  C133  1  0.50000000  0.67959615  0.27777795  1
  C  C134  1  0.50000000  0.67959615  0.61111102  1
  C  C135  1  0.50000000  0.67959615  0.94444410  1
  C  C136  1  0.50000000  0.73946153  0.61111102  1
  C  C137  1  0.50000000  0.73946153  0.94444410  1
  H  H138  1  0.50000000  0.23757586  0.70091259  1
  H  H139  1  0.50000000  0.76242415  0.70091262  1
  H  H140  1  0.50000000  0.23757586  0.79908702  1
  H  H141  1  0.50000000  0.76242414  0.79908702  1
  H  H142  1  0.50000000  0.23757586  0.53424606  1
  H  H143  1  0.50000000  0.23757586  0.86757913  1
  H  H144  1  0.50000000  0.76242415  0.53424608  1
  H  H145  1  0.50000000  0.76242415  0.86757915  1
  H  H146  1  0.50000000  0.23757586  0.63242048  1
  H  H147  1  0.50000000  0.23757586  0.96575355  1
  H  H148  1  0.50000000  0.76242414  0.63242048  1
  H  H149  1  0.50000000  0.76242414  0.96575355  1
  H  H150  1  0.50000000  0.29047118  0.01484076  1
  H  H151  1  0.50000000  0.35033657  0.01484076  1
  H  H152  1  0.50000000  0.41020195  0.01484076  1
  H  H153  1  0.50000000  0.47006733  0.01484076  1
  H  H154  1  0.50000000  0.50697010  0.28424625  1
  H  H155  1  0.50000000  0.70952886  0.01484076  1
  H  H156  1  0.50000000  0.50697010  0.04908760  1
  H  H157  1  0.50000000  0.50697010  0.38242067  1
  H  H158  1  0.50000000  0.70255876  0.03424647  1
  H  H159  1  0.50000000  0.70255876  0.36757954  1
  H  H160  1  0.50000000  0.70255876  0.13242085  1
  H  H161  1  0.50000000  0.70255876  0.46575392  1
  H  H162  1  0.50000000  0.50697010  0.11757972  1
  H  H163  1  0.50000000  0.50697010  0.45091279  1
  H  H164  1  0.50000000  0.29047118  0.48515885  1
  H  H165  1  0.50000000  0.35033657  0.48515885  1
  H  H166  1  0.50000000  0.41020195  0.48515885  1
  H  H167  1  0.50000000  0.47006733  0.48515885  1
  H  H168  1  0.50000000  0.50697010  0.21575414  1
  H  H169  1  0.50000000  0.70952886  0.48515885  1
  H  H170  1  0.50000000  0.70255876  0.20091301  1
  H  H171  1  0.50000000  0.70255876  0.29908738  1
