# generated using pymatgen
data_H14C75
_symmetry_space_group_name_H-M   'P 1'
_cell_length_a   20.00000000
_cell_length_b   40.19450000
_cell_length_c   25.81370000
_cell_angle_alpha   90.00000000
_cell_angle_beta   90.00000000
_cell_angle_gamma   90.00000000
_symmetry_Int_Tables_number   1
_chemical_formula_structural   H14C75
_chemical_formula_sum   'H28 C150'
_cell_volume   20751.37529300
_cell_formula_units_Z   2
loop_
 _symmetry_equiv_pos_site_id
 _symmetry_equiv_pos_as_xyz
  1  'x, y, z'
loop_
 _atom_site_type_symbol
 _atom_site_label
 _atom_site_symmetry_multiplicity
 _atom_site_fract_x
 _atom_site_fract_y
 _atom_site_fract_z
 _atom_site_occupancy
  C  C0  1  0.50000000  0.28658033  0.60988982  1
  C  C1  1  0.50000000  0.28653049  0.77653096  1
  C  C2  1  0.50000000  0.28699541  0.94482767  1
  C  C3  1  0.50000000  0.31633695  0.13842793  1
  C  C4  1  0.50000000  0.31654014  0.63854524  1
  C  C5  1  0.50000000  0.31654006  0.30547545  1
  C  C6  1  0.50000000  0.31640215  0.80521925  1
  C  C7  1  0.50000000  0.31657909  0.47205709  1
  C  C8  1  0.50000000  0.31696723  0.97156559  1
  C  C9  1  0.50000000  0.28660759  0.55653279  1
  C  C10  1  0.50000000  0.28658290  0.72306056  1
  C  C11  1  0.50000000  0.28661797  0.89053378  1
  C  C12  1  0.50000000  0.34730030  0.11153508  1
  C  C13  1  0.50000000  0.34722066  0.61099580  1
  C  C14  1  0.50000000  0.34719728  0.27792964  1
  C  C15  1  0.50000000  0.34712877  0.77757992  1
  C  C16  1  0.50000000  0.34724840  0.44450690  1
  C  C17  1  0.50000000  0.34765782  0.94428768  1
  C  C18  1  0.50000000  0.37810146  0.13946298  1
  C  C19  1  0.50000000  0.37808512  0.63882334  1
  C  C20  1  0.50000000  0.37806043  0.30584996  1
  C  C21  1  0.50000000  0.37807525  0.80506343  1
  C  C22  1  0.50000000  0.37811361  0.47235549  1
  C  C23  1  0.50000000  0.37836641  0.97054109  1
  C  C24  1  0.50000000  0.31696723  0.02843361  1
  C  C25  1  0.50000000  0.31657909  0.52794211  1
  C  C26  1  0.50000000  0.31640215  0.19477994  1
  C  C27  1  0.50000000  0.31654006  0.69452374  1
  C  C28  1  0.50000000  0.31654014  0.36145396  1
  C  C29  1  0.50000000  0.31633695  0.86157127  1
  C  C30  1  0.50000000  0.34765782  0.05571151  1
  C  C31  1  0.50000000  0.34724840  0.55549230  1
  C  C32  1  0.50000000  0.34712877  0.22241928  1
  C  C33  1  0.50000000  0.34719728  0.72206956  1
  C  C34  1  0.50000000  0.34722066  0.38900339  1
  C  C35  1  0.50000000  0.34730030  0.88846411  1
  C  C36  1  0.50000000  0.40876356  0.11215020  1
  C  C37  1  0.50000000  0.40873511  0.61102249  1
  C  C38  1  0.50000000  0.40873221  0.27826045  1
  C  C39  1  0.50000000  0.40869850  0.77734938  1
  C  C40  1  0.50000000  0.40876113  0.44460281  1
  C  C41  1  0.50000000  0.40893039  0.94390081  1
  C  C42  1  0.50000000  0.43950293  0.13971007  1
  C  C43  1  0.50000000  0.43943366  0.63864494  1
  C  C44  1  0.50000000  0.43943017  0.30595504  1
  C  C45  1  0.50000000  0.43945713  0.80482594  1
  C  C46  1  0.50000000  0.43944204  0.47229361  1
  C  C47  1  0.50000000  0.43961443  0.97029843  1
  C  C48  1  0.50000000  0.37836641  0.02945811  1
  C  C49  1  0.50000000  0.37811361  0.52764370  1
  C  C50  1  0.50000000  0.37807525  0.19493576  1
  C  C51  1  0.50000000  0.37806043  0.69414924  1
  C  C52  1  0.50000000  0.37808512  0.36117585  1
  C  C53  1  0.50000000  0.37810146  0.86053621  1
  C  C54  1  0.50000000  0.40893039  0.05609839  1
  C  C55  1  0.50000000  0.40876113  0.55539638  1
  C  C56  1  0.50000000  0.40869850  0.22264982  1
  C  C57  1  0.50000000  0.40873222  0.72173875  1
  C  C58  1  0.50000000  0.40873511  0.38897670  1
  C  C59  1  0.50000000  0.40876356  0.88784900  1
  C  C60  1  0.50000000  0.47023639  0.11223219  1
  C  C61  1  0.50000000  0.47023454  0.61086067  1
  C  C62  1  0.50000000  0.47023450  0.27827158  1
  C  C63  1  0.50000000  0.47022658  0.77713338  1
  C  C64  1  0.50000000  0.47024309  0.44452617  1
  C  C65  1  0.50000000  0.47027265  0.94382398  1
  C  C66  1  0.50000000  0.50095034  0.13971442  1
  C  C67  1  0.50000000  0.50095034  0.63853239  1
  C  C68  1  0.50000000  0.50095034  0.30592101  1
  C  C69  1  0.50000000  0.50095034  0.80470877  1
  C  C70  1  0.50000000  0.50095034  0.47222142  1
  C  C71  1  0.50000000  0.50095034  0.97025801  1
  C  C72  1  0.50000000  0.43961443  0.02970077  1
  C  C73  1  0.50000000  0.43944204  0.52770559  1
  C  C74  1  0.50000000  0.43945713  0.19517325  1
  C  C75  1  0.50000000  0.43943017  0.69404415  1
  C  C76  1  0.50000000  0.43943366  0.36135425  1
  C  C77  1  0.50000000  0.43950293  0.86028912  1
  C  C78  1  0.50000000  0.47027265  0.05617521  1
  C  C79  1  0.50000000  0.47024309  0.55547302  1
  C  C80  1  0.50000000  0.47022658  0.22286582  1
  C  C81  1  0.50000000  0.47023450  0.72172762  1
  C  C82  1  0.50000000  0.47023454  0.38913852  1
  C  C83  1  0.50000000  0.47023639  0.88776701  1
  C  C84  1  0.50000000  0.53166429  0.11223219  1
  C  C85  1  0.50000000  0.53166614  0.61086067  1
  C  C86  1  0.50000000  0.53166618  0.27827158  1
  C  C87  1  0.50000000  0.53167410  0.77713338  1
  C  C88  1  0.50000000  0.53165759  0.44452617  1
  C  C89  1  0.50000000  0.53162803  0.94382398  1
  C  C90  1  0.50000000  0.56239775  0.13971007  1
  C  C91  1  0.50000000  0.56246702  0.63864494  1
  C  C92  1  0.50000000  0.56247051  0.30595504  1
  C  C93  1  0.50000000  0.56244355  0.80482594  1
  C  C94  1  0.50000000  0.56245864  0.47229361  1
  C  C95  1  0.50000000  0.56228625  0.97029843  1
  C  C96  1  0.50000000  0.50095034  0.02974120  1
  C  C97  1  0.50000000  0.50095034  0.52777777  1
  C  C98  1  0.50000000  0.50095034  0.19529042  1
  C  C99  1  0.50000000  0.50095034  0.69407818  1
  C  C100  1  0.50000000  0.50095034  0.36146681  1
  C  C101  1  0.50000000  0.50095034  0.86028477  1
  C  C102  1  0.50000000  0.53162803  0.05617521  1
  C  C103  1  0.50000000  0.53165759  0.55547302  1
  C  C104  1  0.50000000  0.53167410  0.22286582  1
  C  C105  1  0.50000000  0.53166618  0.72172762  1
  C  C106  1  0.50000000  0.53166614  0.38913852  1
  C  C107  1  0.50000000  0.53166429  0.88776701  1
  C  C108  1  0.50000000  0.59313713  0.11215020  1
  C  C109  1  0.50000000  0.59316557  0.61102249  1
  C  C110  1  0.50000000  0.59316847  0.27826045  1
  C  C111  1  0.50000000  0.59320218  0.77734938  1
  C  C112  1  0.50000000  0.59313955  0.44460281  1
  C  C113  1  0.50000000  0.59297029  0.94390081  1
  C  C114  1  0.50000000  0.62381556  0.63882334  1
  C  C115  1  0.50000000  0.62382543  0.80506343  1
  C  C116  1  0.50000000  0.62353427  0.97054108  1
  C  C117  1  0.50000000  0.56228625  0.02970077  1
  C  C118  1  0.50000000  0.56245864  0.52770559  1
  C  C119  1  0.50000000  0.56244355  0.19517325  1
  C  C120  1  0.50000000  0.56247051  0.69404415  1
  C  C121  1  0.50000000  0.56246702  0.36135426  1
  C  C122  1  0.50000000  0.56239775  0.86028912  1
  C  C123  1  0.50000000  0.59297029  0.05609839  1
  C  C124  1  0.50000000  0.59313955  0.55539638  1
  C  C125  1  0.50000000  0.59320218  0.22264982  1
  C  C126  1  0.50000000  0.59316846  0.72173875  1
  C  C127  1  0.50000000  0.59316557  0.38897671  1
  C  C128  1  0.50000000  0.59313713  0.88784900  1
  C  C129  1  0.50000000  0.65468002  0.61099580  1
  C  C130  1  0.50000000  0.65477191  0.77757992  1
  C  C131  1  0.50000000  0.65424286  0.94428769  1
  C  C132  1  0.50000000  0.68536054  0.63854524  1
  C  C133  1  0.50000000  0.68549853  0.80521925  1
  C  C134  1  0.50000000  0.68493345  0.97156558  1
  C  C135  1  0.50000000  0.62378707  0.52764370  1
  C  C136  1  0.50000000  0.62384025  0.69414923  1
  C  C137  1  0.50000000  0.62379922  0.86053621  1
  C  C138  1  0.50000000  0.65465228  0.55549230  1
  C  C139  1  0.50000000  0.65470340  0.72206956  1
  C  C140  1  0.50000000  0.65460038  0.88846411  1
  C  C141  1  0.50000000  0.71532035  0.60988981  1
  C  C142  1  0.50000000  0.71537019  0.77653096  1
  C  C143  1  0.50000000  0.71490526  0.94482767  1
  C  C144  1  0.50000000  0.68532159  0.52794211  1
  C  C145  1  0.50000000  0.68536062  0.69452374  1
  C  C146  1  0.50000000  0.68556373  0.86157127  1
  C  C147  1  0.50000000  0.71529309  0.55653279  1
  C  C148  1  0.50000000  0.71531778  0.72306056  1
  C  C149  1  0.50000000  0.71528270  0.89053379  1
  H  H150  1  0.50000000  0.26262122  0.62988057  1
  H  H151  1  0.50000000  0.26259040  0.79663089  1
  H  H152  1  0.50000000  0.26334341  0.96598910  1
  H  H153  1  0.50000000  0.26265771  0.53654010  1
  H  H154  1  0.50000000  0.26270335  0.70281364  1
  H  H155  1  0.50000000  0.26258276  0.87072696  1
  H  H156  1  0.50000000  0.73927946  0.62988057  1
  H  H157  1  0.50000000  0.73931028  0.79663089  1
  H  H158  1  0.50000000  0.73855727  0.96598909  1
  H  H159  1  0.50000000  0.73924297  0.53654010  1
  H  H160  1  0.50000000  0.73919733  0.70281364  1
  H  H161  1  0.50000000  0.73931791  0.87072696  1
  H  H162  1  0.50000000  0.68533065  0.48571647  1
  H  H163  1  0.50000000  0.29282757  0.11738103  1
  H  H164  1  0.50000000  0.29305504  0.28436272  1
  H  H165  1  0.50000000  0.29309410  0.45094427  1
  H  H166  1  0.50000000  0.29348223  0.04954643  1
  H  H167  1  0.50000000  0.29294162  0.21595861  1
  H  H168  1  0.50000000  0.29305518  0.38256686  1
  H  H169  1  0.50000000  0.61660625  0.13330576  1
  H  H170  1  0.50000000  0.61667413  0.29931742  1
  H  H171  1  0.50000000  0.61664767  0.46565314  1
  H  H172  1  0.50000000  0.62389446  0.01276299  1
  H  H173  1  0.50000000  0.61619575  0.03430060  1
  H  H174  1  0.50000000  0.61664983  0.20143660  1
  H  H175  1  0.50000000  0.61665582  0.36787806  1
  H  H176  1  0.50000000  0.68506691  0.01379070  1
  H  H177  1  0.50000000  0.62370164  0.48541828  1
