# generated using pymatgen
data_HC7
_symmetry_space_group_name_H-M   'P 1'
_cell_length_a   20.00000000
_cell_length_b   37.22700000
_cell_length_c   25.57550000
_cell_angle_alpha   90.00000000
_cell_angle_beta   90.00000000
_cell_angle_gamma   90.00000000
_symmetry_Int_Tables_number   1
_chemical_formula_structural   HC7
_chemical_formula_sum   'H24 C168'
_cell_volume   19041.98277000
_cell_formula_units_Z   24
loop_
 _symmetry_equiv_pos_site_id
 _symmetry_equiv_pos_as_xyz
  1  'x, y, z'
loop_
 _atom_site_type_symbol
 _atom_site_label
 _atom_site_symmetry_multiplicity
 _atom_site_fract_x
 _atom_site_fract_y
 _atom_site_fract_z
 _atom_site_occupancy
  C  C0  1  0.50000000  0.31820320  0.22222244  1
  C  C1  1  0.50000000  0.31820320  0.55555551  1
  C  C2  1  0.50000000  0.31820320  0.88888858  1
  C  C3  1  0.50000000  0.38431113  0.22222244  1
  C  C4  1  0.50000000  0.38431113  0.55555551  1
  C  C5  1  0.50000000  0.38431113  0.88888858  1
  C  C6  1  0.50000000  0.45041906  0.22222244  1
  C  C7  1  0.50000000  0.45041906  0.55555551  1
  C  C8  1  0.50000000  0.45041906  0.88888858  1
  C  C9  1  0.50000000  0.51652699  0.22222244  1
  C  C10  1  0.50000000  0.51652699  0.55555551  1
  C  C11  1  0.50000000  0.51652699  0.88888858  1
  C  C12  1  0.50000000  0.58263493  0.22222244  1
  C  C13  1  0.50000000  0.58263493  0.55555551  1
  C  C14  1  0.50000000  0.58263493  0.88888858  1
  C  C15  1  0.50000000  0.64874286  0.22222244  1
  C  C16  1  0.50000000  0.64874286  0.55555551  1
  C  C17  1  0.50000000  0.64874286  0.88888858  1
  C  C18  1  0.50000000  0.71485079  0.22222244  1
  C  C19  1  0.50000000  0.71485079  0.55555551  1
  C  C20  1  0.50000000  0.71485079  0.88888858  1
  C  C21  1  0.50000000  0.31820320  0.27777795  1
  C  C22  1  0.50000000  0.31820320  0.61111102  1
  C  C23  1  0.50000000  0.31820320  0.94444410  1
  C  C24  1  0.50000000  0.38431113  0.27777795  1
  C  C25  1  0.50000000  0.38431113  0.61111102  1
  C  C26  1  0.50000000  0.38431113  0.94444410  1
  C  C27  1  0.50000000  0.45041906  0.27777795  1
  C  C28  1  0.50000000  0.45041906  0.61111102  1
  C  C29  1  0.50000000  0.45041906  0.94444410  1
  C  C30  1  0.50000000  0.51652699  0.27777795  1
  C  C31  1  0.50000000  0.51652699  0.61111102  1
  C  C32  1  0.50000000  0.51652699  0.94444410  1
  C  C33  1  0.50000000  0.58263493  0.27777795  1
  C  C34  1  0.50000000  0.58263493  0.61111102  1
  C  C35  1  0.50000000  0.58263493  0.94444410  1
  C  C36  1  0.50000000  0.64874286  0.27777795  1
  C  C37  1  0.50000000  0.64874286  0.61111102  1
  C  C38  1  0.50000000  0.64874286  0.94444410  1
  C  C39  1  0.50000000  0.71485079  0.27777795  1
  C  C40  1  0.50000000  0.71485079  0.61111102  1
  C  C41  1  0.50000000  0.71485079  0.94444410  1
  C  C42  1  0.50000000  0.28514921  0.30555571  1
  C  C43  1  0.50000000  0.28514921  0.63888878  1
  C  C44  1  0.50000000  0.28514921  0.97222185  1
  C  C45  1  0.50000000  0.35125714  0.30555571  1
  C  C46  1  0.50000000  0.35125714  0.63888878  1
  C  C47  1  0.50000000  0.35125714  0.97222185  1
  C  C48  1  0.50000000  0.41736507  0.30555571  1
  C  C49  1  0.50000000  0.41736507  0.63888878  1
  C  C50  1  0.50000000  0.41736507  0.97222185  1
  C  C51  1  0.50000000  0.48347301  0.30555571  1
  C  C52  1  0.50000000  0.48347301  0.63888878  1
  C  C53  1  0.50000000  0.48347301  0.97222185  1
  C  C54  1  0.50000000  0.54958094  0.30555571  1
  C  C55  1  0.50000000  0.54958094  0.63888878  1
  C  C56  1  0.50000000  0.54958094  0.97222185  1
  C  C57  1  0.50000000  0.61568887  0.30555571  1
  C  C58  1  0.50000000  0.61568887  0.63888878  1
  C  C59  1  0.50000000  0.61568887  0.97222185  1
  C  C60  1  0.50000000  0.68179680  0.30555571  1
  C  C61  1  0.50000000  0.68179680  0.63888878  1
  C  C62  1  0.50000000  0.68179680  0.97222185  1
  C  C63  1  0.50000000  0.28514921  0.02777815  1
  C  C64  1  0.50000000  0.28514921  0.36111122  1
  C  C65  1  0.50000000  0.28514921  0.69444429  1
  C  C66  1  0.50000000  0.35125714  0.02777815  1
  C  C67  1  0.50000000  0.35125714  0.36111122  1
  C  C68  1  0.50000000  0.35125714  0.69444429  1
  C  C69  1  0.50000000  0.41736507  0.02777815  1
  C  C70  1  0.50000000  0.41736507  0.36111122  1
  C  C71  1  0.50000000  0.41736507  0.69444429  1
  C  C72  1  0.50000000  0.48347301  0.02777815  1
  C  C73  1  0.50000000  0.48347301  0.36111122  1
  C  C74  1  0.50000000  0.48347301  0.69444429  1
  C  C75  1  0.50000000  0.54958094  0.02777815  1
  C  C76  1  0.50000000  0.54958094  0.36111122  1
  C  C77  1  0.50000000  0.54958094  0.69444429  1
  C  C78  1  0.50000000  0.61568887  0.02777815  1
  C  C79  1  0.50000000  0.61568887  0.36111122  1
  C  C80  1  0.50000000  0.61568887  0.69444429  1
  C  C81  1  0.50000000  0.68179680  0.02777815  1
  C  C82  1  0.50000000  0.68179680  0.36111122  1
  C  C83  1  0.50000000  0.68179680  0.69444429  1
  C  C84  1  0.50000000  0.31820320  0.05555590  1
  C  C85  1  0.50000000  0.31820320  0.38888898  1
  C  C86  1  0.50000000  0.31820320  0.72222205  1
  C  C87  1  0.50000000  0.38431113  0.05555590  1
  C  C88  1  0.50000000  0.38431113  0.38888898  1
  C  C89  1  0.50000000  0.38431113  0.72222205  1
  C  C90  1  0.50000000  0.45041906  0.05555590  1
  C  C91  1  0.50000000  0.45041906  0.38888898  1
  C  C92  1  0.50000000  0.45041906  0.72222205  1
  C  C93  1  0.50000000  0.51652699  0.05555590  1
  C  C94  1  0.50000000  0.51652699  0.38888898  1
  C  C95  1  0.50000000  0.51652699  0.72222205  1
  C  C96  1  0.50000000  0.58263493  0.05555590  1
  C  C97  1  0.50000000  0.58263493  0.38888898  1
  C  C98  1  0.50000000  0.58263493  0.72222205  1
  C  C99  1  0.50000000  0.64874286  0.05555590  1
  C  C100  1  0.50000000  0.64874286  0.38888898  1
  C  C101  1  0.50000000  0.64874286  0.72222205  1
  C  C102  1  0.50000000  0.71485079  0.05555590  1
  C  C103  1  0.50000000  0.71485079  0.38888898  1
  C  C104  1  0.50000000  0.71485079  0.72222205  1
  C  C105  1  0.50000000  0.31820320  0.11111142  1
  C  C106  1  0.50000000  0.31820320  0.44444449  1
  C  C107  1  0.50000000  0.31820320  0.77777756  1
  C  C108  1  0.50000000  0.38431113  0.11111142  1
  C  C109  1  0.50000000  0.38431113  0.44444449  1
  C  C110  1  0.50000000  0.38431113  0.77777756  1
  C  C111  1  0.50000000  0.45041906  0.11111142  1
  C  C112  1  0.50000000  0.45041906  0.44444449  1
  C  C113  1  0.50000000  0.45041906  0.77777756  1
  C  C114  1  0.50000000  0.51652699  0.11111142  1
  C  C115  1  0.50000000  0.51652699  0.44444449  1
  C  C116  1  0.50000000  0.51652699  0.77777756  1
  C  C117  1  0.50000000  0.58263493  0.11111142  1
  C  C118  1  0.50000000  0.58263493  0.44444449  1
  C  C119  1  0.50000000  0.58263493  0.77777756  1
  C  C120  1  0.50000000  0.64874286  0.11111142  1
  C  C121  1  0.50000000  0.64874286  0.44444449  1
  C  C122  1  0.50000000  0.64874286  0.77777756  1
  C  C123  1  0.50000000  0.71485079  0.11111142  1
  C  C124  1  0.50000000  0.71485079  0.44444449  1
  C  C125  1  0.50000000  0.71485079  0.77777756  1
  C  C126  1  0.50000000  0.28514921  0.13888917  1
  C  C127  1  0.50000000  0.28514921  0.47222224  1
  C  C128  1  0.50000000  0.28514921  0.80555532  1
  C  C129  1  0.50000000  0.35125714  0.13888917  1
  C  C130  1  0.50000000  0.35125714  0.47222224  1
  C  C131  1  0.50000000  0.35125714  0.80555532  1
  C  C132  1  0.50000000  0.41736507  0.13888917  1
  C  C133  1  0.50000000  0.41736507  0.47222224  1
  C  C134  1  0.50000000  0.41736507  0.80555532  1
  C  C135  1  0.50000000  0.48347301  0.13888917  1
  C  C136  1  0.50000000  0.48347301  0.47222224  1
  C  C137  1  0.50000000  0.48347301  0.80555532  1
  C  C138  1  0.50000000  0.54958094  0.13888917  1
  C  C139  1  0.50000000  0.54958094  0.47222224  1
  C  C140  1  0.50000000  0.54958094  0.80555532  1
  C  C141  1  0.50000000  0.61568887  0.13888917  1
  C  C142  1  0.50000000  0.61568887  0.47222224  1
  C  C143  1  0.50000000  0.61568887  0.80555532  1
  C  C144  1  0.50000000  0.68179680  0.13888917  1
  C  C145  1  0.50000000  0.68179680  0.47222224  1
  C  C146  1  0.50000000  0.68179680  0.80555532  1
  C  C147  1  0.50000000  0.28514921  0.19444468  1
  C  C148  1  0.50000000  0.28514921  0.52777776  1
  C  C149  1  0.50000000  0.28514921  0.86111083  1
  C  C150  1  0.50000000  0.35125714  0.19444468  1
  C  C151  1  0.50000000  0.35125714  0.52777776  1
  C  C152  1  0.50000000  0.35125714  0.86111083  1
  C  C153  1  0.50000000  0.41736507  0.19444468  1
  C  C154  1  0.50000000  0.41736507  0.52777776  1
  C  C155  1  0.50000000  0.41736507  0.86111083  1
  C  C156  1  0.50000000  0.48347301  0.19444468  1
  C  C157  1  0.50000000  0.48347301  0.52777776  1
  C  C158  1  0.50000000  0.48347301  0.86111083  1
  C  C159  1  0.50000000  0.54958094  0.19444468  1
  C  C160  1  0.50000000  0.54958094  0.52777776  1
  C  C161  1  0.50000000  0.54958094  0.86111083  1
  C  C162  1  0.50000000  0.61568887  0.19444468  1
  C  C163  1  0.50000000  0.61568887  0.52777776  1
  C  C164  1  0.50000000  0.61568887  0.86111083  1
  C  C165  1  0.50000000  0.68179680  0.19444468  1
  C  C166  1  0.50000000  0.68179680  0.52777776  1
  C  C167  1  0.50000000  0.68179680  0.86111083  1
  H  H168  1  0.50000000  0.74020786  0.20091298  1
  H  H169  1  0.50000000  0.74020786  0.53424606  1
  H  H170  1  0.50000000  0.74020786  0.86757913  1
  H  H171  1  0.50000000  0.74020786  0.29908741  1
  H  H172  1  0.50000000  0.74020786  0.63242048  1
  H  H173  1  0.50000000  0.74020786  0.96575355  1
  H  H174  1  0.50000000  0.25979214  0.28424625  1
  H  H175  1  0.50000000  0.25979214  0.61757933  1
  H  H176  1  0.50000000  0.25979214  0.95091240  1
  H  H177  1  0.50000000  0.25979214  0.04908760  1
  H  H178  1  0.50000000  0.25979214  0.38242067  1
  H  H179  1  0.50000000  0.25979214  0.71575375  1
  H  H180  1  0.50000000  0.74020786  0.03424645  1
  H  H181  1  0.50000000  0.74020786  0.36757952  1
  H  H182  1  0.50000000  0.74020786  0.70091259  1
  H  H183  1  0.50000000  0.74020786  0.13242087  1
  H  H184  1  0.50000000  0.74020786  0.46575394  1
  H  H185  1  0.50000000  0.74020786  0.79908702  1
  H  H186  1  0.50000000  0.25979214  0.11757972  1
  H  H187  1  0.50000000  0.25979214  0.45091279  1
  H  H188  1  0.50000000  0.25979214  0.78424586  1
  H  H189  1  0.50000000  0.25979214  0.21575414  1
  H  H190  1  0.50000000  0.25979214  0.54908721  1
  H  H191  1  0.50000000  0.25979214  0.88242028  1
