# generated using pymatgen
data_H11C34
_symmetry_space_group_name_H-M   'P 1'
_cell_length_a   20.00000000
_cell_length_b   40.19450000
_cell_length_c   34.27510000
_cell_angle_alpha   90.00000000
_cell_angle_beta   90.00000000
_cell_angle_gamma   90.00000000
_symmetry_Int_Tables_number   1
_chemical_formula_structural   H11C34
_chemical_formula_sum   'H44 C136'
_cell_volume   27553.41013900
_cell_formula_units_Z   4
loop_
 _symmetry_equiv_pos_site_id
 _symmetry_equiv_pos_as_xyz
  1  'x, y, z'
loop_
 _atom_site_type_symbol
 _atom_site_label
 _atom_site_symmetry_multiplicity
 _atom_site_fract_x
 _atom_site_fract_y
 _atom_site_fract_z
 _atom_site_occupancy
  C  C0  1  0.50000000  0.28566764  0.58117538  1
  C  C1  1  0.50000000  0.28562999  0.95806138  1
  C  C2  1  0.50000000  0.28563256  0.70730495  1
  C  C3  1  0.50000000  0.28565725  0.83272246  1
  C  C4  1  0.50000000  0.31538662  0.10298815  1
  C  C5  1  0.50000000  0.31538662  0.60298800  1
  C  C6  1  0.50000000  0.31558981  0.47964288  1
  C  C7  1  0.50000000  0.31558981  0.97964272  1
  C  C8  1  0.50000000  0.31558972  0.22879712  1
  C  C9  1  0.50000000  0.31558972  0.72879696  1
  C  C10  1  0.50000000  0.31562875  0.35425520  1
  C  C11  1  0.50000000  0.31562875  0.85425504  1
  C  C12  1  0.50000000  0.28604508  0.54028487  1
  C  C13  1  0.50000000  0.28565725  0.91787646  1
  C  C14  1  0.50000000  0.28558015  0.66703464  1
  C  C15  1  0.50000000  0.28563000  0.79253754  1
  C  C16  1  0.50000000  0.34634996  0.08273427  1
  C  C17  1  0.50000000  0.34634996  0.58273412  1
  C  C18  1  0.50000000  0.34627032  0.45889449  1
  C  C19  1  0.50000000  0.34627032  0.95889434  1
  C  C20  1  0.50000000  0.34624695  0.20805146  1
  C  C21  1  0.50000000  0.34624695  0.70805130  1
  C  C22  1  0.50000000  0.34629806  0.33350625  1
  C  C23  1  0.50000000  0.34629806  0.83350609  1
  C  C24  1  0.50000000  0.37715112  0.60376753  1
  C  C25  1  0.50000000  0.37713478  0.97985217  1
  C  C26  1  0.50000000  0.37711009  0.72907901  1
  C  C27  1  0.50000000  0.37716327  0.85447978  1
  C  C28  1  0.50000000  0.31601689  0.02014783  1
  C  C29  1  0.50000000  0.31601689  0.52014768  1
  C  C30  1  0.50000000  0.31562875  0.39634403  1
  C  C31  1  0.50000000  0.31562875  0.89634388  1
  C  C32  1  0.50000000  0.31545181  0.14542870  1
  C  C33  1  0.50000000  0.31545181  0.64542855  1
  C  C34  1  0.50000000  0.31558981  0.27095636  1
  C  C35  1  0.50000000  0.31558981  0.77095620  1
  C  C36  1  0.50000000  0.34670748  0.04069171  1
  C  C37  1  0.50000000  0.34670748  0.54069156  1
  C  C38  1  0.50000000  0.34629806  0.41709299  1
  C  C39  1  0.50000000  0.34629806  0.91709283  1
  C  C40  1  0.50000000  0.34617843  0.16624479  1
  C  C41  1  0.50000000  0.34617843  0.66624463  1
  C  C42  1  0.50000000  0.34627032  0.29170474  1
  C  C43  1  0.50000000  0.34627032  0.79170458  1
  C  C44  1  0.50000000  0.40781322  0.58319738  1
  C  C45  1  0.50000000  0.40778477  0.95891444  1
  C  C46  1  0.50000000  0.40778188  0.70830045  1
  C  C47  1  0.50000000  0.40781080  0.83357833  1
  C  C48  1  0.50000000  0.43855259  0.60395362  1
  C  C49  1  0.50000000  0.43848332  0.97971781  1
  C  C50  1  0.50000000  0.43847983  0.72915815  1
  C  C51  1  0.50000000  0.43849170  0.85443317  1
  C  C52  1  0.50000000  0.37741608  0.52091926  1
  C  C53  1  0.50000000  0.37716327  0.89611914  1
  C  C54  1  0.50000000  0.37712491  0.64554590  1
  C  C55  1  0.50000000  0.37713478  0.77074675  1
  C  C56  1  0.50000000  0.40798005  0.54098293  1
  C  C57  1  0.50000000  0.40781080  0.91702059  1
  C  C58  1  0.50000000  0.40774816  0.66641826  1
  C  C59  1  0.50000000  0.40778477  0.79168448  1
  C  C60  1  0.50000000  0.46928605  0.58325913  1
  C  C61  1  0.50000000  0.46928420  0.95879256  1
  C  C62  1  0.50000000  0.46928416  0.70830883  1
  C  C63  1  0.50000000  0.46929275  0.83352060  1
  C  C64  1  0.50000000  0.50000000  0.60395690  1
  C  C65  1  0.50000000  0.50000000  0.97963304  1
  C  C66  1  0.50000000  0.50000000  0.72913252  1
  C  C67  1  0.50000000  0.50000000  0.85437881  1
  C  C68  1  0.50000000  0.43866409  0.52110201  1
  C  C69  1  0.50000000  0.43849170  0.89616575  1
  C  C70  1  0.50000000  0.43850679  0.64572476  1
  C  C71  1  0.50000000  0.43848332  0.77088111  1
  C  C72  1  0.50000000  0.46932231  0.54104079  1
  C  C73  1  0.50000000  0.46929275  0.91707831  1
  C  C74  1  0.50000000  0.46927624  0.66658094  1
  C  C75  1  0.50000000  0.46928420  0.79180636  1
  C  C76  1  0.50000000  0.53071395  0.58325913  1
  C  C77  1  0.50000000  0.53071580  0.95879256  1
  C  C78  1  0.50000000  0.53071584  0.70830883  1
  C  C79  1  0.50000000  0.53070725  0.83352061  1
  C  C80  1  0.50000000  0.56144741  0.60395362  1
  C  C81  1  0.50000000  0.56151668  0.97971781  1
  C  C82  1  0.50000000  0.56152017  0.72915815  1
  C  C83  1  0.50000000  0.56150831  0.85443317  1
  C  C84  1  0.50000000  0.50000000  0.52113246  1
  C  C85  1  0.50000000  0.50000000  0.89622011  1
  C  C86  1  0.50000000  0.50000000  0.64581301  1
  C  C87  1  0.50000000  0.50000000  0.77096588  1
  C  C88  1  0.50000000  0.53067769  0.54104079  1
  C  C89  1  0.50000000  0.53070725  0.91707831  1
  C  C90  1  0.50000000  0.53072376  0.66658094  1
  C  C91  1  0.50000000  0.53071580  0.79180636  1
  C  C92  1  0.50000000  0.59218679  0.58319738  1
  C  C93  1  0.50000000  0.59221523  0.95891443  1
  C  C94  1  0.50000000  0.59221813  0.70830045  1
  C  C95  1  0.50000000  0.59218921  0.83357833  1
  C  C96  1  0.50000000  0.62284888  0.60376753  1
  C  C97  1  0.50000000  0.62286522  0.97985217  1
  C  C98  1  0.50000000  0.62288991  0.72907901  1
  C  C99  1  0.50000000  0.62283673  0.85447978  1
  C  C100  1  0.50000000  0.56133591  0.52110202  1
  C  C101  1  0.50000000  0.56150831  0.89616575  1
  C  C102  1  0.50000000  0.56149321  0.64572476  1
  C  C103  1  0.50000000  0.56151668  0.77088111  1
  C  C104  1  0.50000000  0.59201995  0.54098293  1
  C  C105  1  0.50000000  0.59218921  0.91702059  1
  C  C106  1  0.50000000  0.59225185  0.66641826  1
  C  C107  1  0.50000000  0.59221523  0.79168449  1
  C  C108  1  0.50000000  0.65365004  0.58273412  1
  C  C109  1  0.50000000  0.65372968  0.95889434  1
  C  C110  1  0.50000000  0.65375306  0.70805130  1
  C  C111  1  0.50000000  0.65370194  0.83350609  1
  C  C112  1  0.50000000  0.68461339  0.60298800  1
  C  C113  1  0.50000000  0.68441020  0.97964272  1
  C  C114  1  0.50000000  0.68441028  0.72879696  1
  C  C115  1  0.50000000  0.68437125  0.85425504  1
  C  C116  1  0.50000000  0.62258393  0.52091927  1
  C  C117  1  0.50000000  0.62283673  0.89611914  1
  C  C118  1  0.50000000  0.62287509  0.64554590  1
  C  C119  1  0.50000000  0.62286522  0.77074675  1
  C  C120  1  0.50000000  0.65329252  0.54069156  1
  C  C121  1  0.50000000  0.65370194  0.91709283  1
  C  C122  1  0.50000000  0.65382157  0.66624463  1
  C  C123  1  0.50000000  0.65372968  0.79170458  1
  C  C124  1  0.50000000  0.71433237  0.58117538  1
  C  C125  1  0.50000000  0.71437001  0.95806138  1
  C  C126  1  0.50000000  0.71436744  0.70730495  1
  C  C127  1  0.50000000  0.71434275  0.83272246  1
  C  C128  1  0.50000000  0.68398311  0.52014768  1
  C  C129  1  0.50000000  0.68437125  0.89634388  1
  C  C130  1  0.50000000  0.68454819  0.64542855  1
  C  C131  1  0.50000000  0.68441020  0.77095620  1
  C  C132  1  0.50000000  0.71395492  0.54028487  1
  C  C133  1  0.50000000  0.71434275  0.91787646  1
  C  C134  1  0.50000000  0.71441985  0.66703464  1
  C  C135  1  0.50000000  0.71437001  0.79253754  1
  H  H136  1  0.50000000  0.26163243  0.59609254  1
  H  H137  1  0.50000000  0.26167088  0.97311707  1
  H  H138  1  0.50000000  0.26175301  0.72255357  1
  H  H139  1  0.50000000  0.26170737  0.84777961  1
  H  H140  1  0.50000000  0.26239307  0.52434751  1
  H  H141  1  0.50000000  0.26170737  0.90281931  1
  H  H142  1  0.50000000  0.26164006  0.65189672  1
  H  H143  1  0.50000000  0.26167088  0.77748185  1
  H  H144  1  0.50000000  0.73836757  0.59609254  1
  H  H145  1  0.50000000  0.73832912  0.97311707  1
  H  H146  1  0.50000000  0.73824699  0.72255357  1
  H  H147  1  0.50000000  0.73829263  0.84777961  1
  H  H148  1  0.50000000  0.73760693  0.52434751  1
  H  H149  1  0.50000000  0.73829264  0.90281931  1
  H  H150  1  0.50000000  0.73835994  0.65189672  1
  H  H151  1  0.50000000  0.73832912  0.77748185  1
  H  H152  1  0.50000000  0.29187723  0.08713704  1
  H  H153  1  0.50000000  0.29193896  0.46408386  1
  H  H154  1  0.50000000  0.29210470  0.21289642  1
  H  H155  1  0.50000000  0.29214376  0.33835444  1
  H  H156  1  0.50000000  0.36963182  0.09904067  1
  H  H157  1  0.50000000  0.36974848  0.47480913  1
  H  H158  1  0.50000000  0.36972879  0.22395861  1
  H  H159  1  0.50000000  0.36977853  0.34941620  1
  H  H160  1  0.50000000  0.37710068  0.01165365  1
  H  H161  1  0.50000000  0.29270134  0.03638789  1
  H  H162  1  0.50000000  0.29214376  0.41224479  1
  H  H163  1  0.50000000  0.29199128  0.16137905  1
  H  H164  1  0.50000000  0.29210484  0.28685717  1
  H  H165  1  0.50000000  0.37012546  0.02465561  1
  H  H166  1  0.50000000  0.36977853  0.40118303  1
  H  H167  1  0.50000000  0.36966690  0.15035109  1
  H  H168  1  0.50000000  0.36974848  0.27579010  1
  H  H169  1  0.50000000  0.43847282  0.01151932  1
  H  H170  1  0.50000000  0.37799874  0.48912509  1
  H  H171  1  0.50000000  0.49997515  0.01143454  1
  H  H172  1  0.50000000  0.43917482  0.48930615  1
  H  H173  1  0.50000000  0.56147662  0.01151928  1
  H  H174  1  0.50000000  0.50049254  0.48933620  1
  H  H175  1  0.50000000  0.62276030  0.01165344  1
  H  H176  1  0.50000000  0.56180359  0.48930524  1
  H  H177  1  0.50000000  0.68442387  0.01144423  1
  H  H178  1  0.50000000  0.62294412  0.48912056  1
  H  H179  1  0.50000000  0.68411657  0.48834655  1
