# generated using pymatgen
data_H7C23
_symmetry_space_group_name_H-M   'P 1'
_cell_length_a   20.00000000
_cell_length_b   40.19450000
_cell_length_c   34.27510000
_cell_angle_alpha   90.00000000
_cell_angle_beta   90.00000000
_cell_angle_gamma   90.00000000
_symmetry_Int_Tables_number   1
_chemical_formula_structural   H7C23
_chemical_formula_sum   'H56 C184'
_cell_volume   27553.41013900
_cell_formula_units_Z   8
loop_
 _symmetry_equiv_pos_site_id
 _symmetry_equiv_pos_as_xyz
  1  'x, y, z'
loop_
 _atom_site_type_symbol
 _atom_site_label
 _atom_site_symmetry_multiplicity
 _atom_site_fract_x
 _atom_site_fract_y
 _atom_site_fract_z
 _atom_site_occupancy
  C  C0  1  0.50000000  0.28566764  0.08117553  1
  C  C1  1  0.50000000  0.28566764  0.58117538  1
  C  C2  1  0.50000000  0.28562999  0.45806154  1
  C  C3  1  0.50000000  0.28562999  0.95806138  1
  C  C4  1  0.50000000  0.28563256  0.20730510  1
  C  C5  1  0.50000000  0.28563256  0.70730495  1
  C  C6  1  0.50000000  0.28565725  0.33272262  1
  C  C7  1  0.50000000  0.28565725  0.83272246  1
  C  C8  1  0.50000000  0.31538662  0.10298815  1
  C  C9  1  0.50000000  0.31538662  0.60298800  1
  C  C10  1  0.50000000  0.31558981  0.47964288  1
  C  C11  1  0.50000000  0.31558981  0.97964272  1
  C  C12  1  0.50000000  0.31558972  0.22879712  1
  C  C13  1  0.50000000  0.31558972  0.72879696  1
  C  C14  1  0.50000000  0.31562875  0.35425520  1
  C  C15  1  0.50000000  0.31562875  0.85425504  1
  C  C16  1  0.50000000  0.28604508  0.04028503  1
  C  C17  1  0.50000000  0.28604508  0.54028487  1
  C  C18  1  0.50000000  0.28565725  0.41787662  1
  C  C19  1  0.50000000  0.28565725  0.91787646  1
  C  C20  1  0.50000000  0.28558015  0.16703479  1
  C  C21  1  0.50000000  0.28558015  0.66703464  1
  C  C22  1  0.50000000  0.28563000  0.29253769  1
  C  C23  1  0.50000000  0.28563000  0.79253754  1
  C  C24  1  0.50000000  0.34634996  0.08273427  1
  C  C25  1  0.50000000  0.34634996  0.58273412  1
  C  C26  1  0.50000000  0.34627032  0.45889449  1
  C  C27  1  0.50000000  0.34627032  0.95889434  1
  C  C28  1  0.50000000  0.34624695  0.20805146  1
  C  C29  1  0.50000000  0.34624695  0.70805130  1
  C  C30  1  0.50000000  0.34629806  0.33350625  1
  C  C31  1  0.50000000  0.34629806  0.83350609  1
  C  C32  1  0.50000000  0.37715112  0.10376768  1
  C  C33  1  0.50000000  0.37715112  0.60376753  1
  C  C34  1  0.50000000  0.37713478  0.47985232  1
  C  C35  1  0.50000000  0.37713478  0.97985217  1
  C  C36  1  0.50000000  0.37711009  0.22907917  1
  C  C37  1  0.50000000  0.37711009  0.72907901  1
  C  C38  1  0.50000000  0.37716327  0.35447993  1
  C  C39  1  0.50000000  0.37716327  0.85447978  1
  C  C40  1  0.50000000  0.31601689  0.02014783  1
  C  C41  1  0.50000000  0.31601689  0.52014768  1
  C  C42  1  0.50000000  0.31562875  0.39634403  1
  C  C43  1  0.50000000  0.31562875  0.89634388  1
  C  C44  1  0.50000000  0.31545181  0.14542870  1
  C  C45  1  0.50000000  0.31545181  0.64542855  1
  C  C46  1  0.50000000  0.31558981  0.27095636  1
  C  C47  1  0.50000000  0.31558981  0.77095620  1
  C  C48  1  0.50000000  0.34670748  0.04069171  1
  C  C49  1  0.50000000  0.34670748  0.54069156  1
  C  C50  1  0.50000000  0.34629806  0.41709299  1
  C  C51  1  0.50000000  0.34629806  0.91709283  1
  C  C52  1  0.50000000  0.34617843  0.16624479  1
  C  C53  1  0.50000000  0.34617843  0.66624463  1
  C  C54  1  0.50000000  0.34627032  0.29170474  1
  C  C55  1  0.50000000  0.34627032  0.79170458  1
  C  C56  1  0.50000000  0.40781322  0.08319753  1
  C  C57  1  0.50000000  0.40781322  0.58319738  1
  C  C58  1  0.50000000  0.40778477  0.45891459  1
  C  C59  1  0.50000000  0.40778477  0.95891444  1
  C  C60  1  0.50000000  0.40778188  0.20830060  1
  C  C61  1  0.50000000  0.40778188  0.70830045  1
  C  C62  1  0.50000000  0.40781080  0.33357848  1
  C  C63  1  0.50000000  0.40781080  0.83357833  1
  C  C64  1  0.50000000  0.43855259  0.60395362  1
  C  C65  1  0.50000000  0.43848332  0.97971781  1
  C  C66  1  0.50000000  0.43847983  0.72915815  1
  C  C67  1  0.50000000  0.43849170  0.85443317  1
  C  C68  1  0.50000000  0.37741608  0.02091942  1
  C  C69  1  0.50000000  0.37741608  0.52091926  1
  C  C70  1  0.50000000  0.37716327  0.39611930  1
  C  C71  1  0.50000000  0.37716327  0.89611914  1
  C  C72  1  0.50000000  0.37712491  0.14554605  1
  C  C73  1  0.50000000  0.37712491  0.64554590  1
  C  C74  1  0.50000000  0.37713478  0.27074691  1
  C  C75  1  0.50000000  0.37713478  0.77074675  1
  C  C76  1  0.50000000  0.40798005  0.04098308  1
  C  C77  1  0.50000000  0.40798005  0.54098293  1
  C  C78  1  0.50000000  0.40781080  0.41702075  1
  C  C79  1  0.50000000  0.40781080  0.91702059  1
  C  C80  1  0.50000000  0.40774816  0.16641842  1
  C  C81  1  0.50000000  0.40774816  0.66641826  1
  C  C82  1  0.50000000  0.40778477  0.29168464  1
  C  C83  1  0.50000000  0.40778477  0.79168448  1
  C  C84  1  0.50000000  0.46928605  0.58325913  1
  C  C85  1  0.50000000  0.46928420  0.95879256  1
  C  C86  1  0.50000000  0.46928416  0.70830883  1
  C  C87  1  0.50000000  0.46929275  0.83352060  1
  C  C88  1  0.50000000  0.50000000  0.60395690  1
  C  C89  1  0.50000000  0.50000000  0.97963304  1
  C  C90  1  0.50000000  0.50000000  0.72913252  1
  C  C91  1  0.50000000  0.50000000  0.85437881  1
  C  C92  1  0.50000000  0.43866409  0.52110201  1
  C  C93  1  0.50000000  0.43849170  0.89616575  1
  C  C94  1  0.50000000  0.43850679  0.64572476  1
  C  C95  1  0.50000000  0.43848332  0.77088111  1
  C  C96  1  0.50000000  0.46932231  0.54104079  1
  C  C97  1  0.50000000  0.46929275  0.91707831  1
  C  C98  1  0.50000000  0.46927624  0.66658094  1
  C  C99  1  0.50000000  0.46928420  0.79180636  1
  C  C100  1  0.50000000  0.53071395  0.58325913  1
  C  C101  1  0.50000000  0.53071580  0.95879256  1
  C  C102  1  0.50000000  0.53071584  0.70830883  1
  C  C103  1  0.50000000  0.53070725  0.83352061  1
  C  C104  1  0.50000000  0.56144741  0.60395362  1
  C  C105  1  0.50000000  0.56151668  0.97971781  1
  C  C106  1  0.50000000  0.56152017  0.72915815  1
  C  C107  1  0.50000000  0.56150831  0.85443317  1
  C  C108  1  0.50000000  0.50000000  0.52113246  1
  C  C109  1  0.50000000  0.50000000  0.89622011  1
  C  C110  1  0.50000000  0.50000000  0.64581301  1
  C  C111  1  0.50000000  0.50000000  0.77096588  1
  C  C112  1  0.50000000  0.53067769  0.54104079  1
  C  C113  1  0.50000000  0.53070725  0.91707831  1
  C  C114  1  0.50000000  0.53072376  0.66658094  1
  C  C115  1  0.50000000  0.53071580  0.79180636  1
  C  C116  1  0.50000000  0.59218679  0.58319738  1
  C  C117  1  0.50000000  0.59221523  0.95891443  1
  C  C118  1  0.50000000  0.59221813  0.70830045  1
  C  C119  1  0.50000000  0.59218921  0.83357833  1
  C  C120  1  0.50000000  0.62284888  0.60376753  1
  C  C121  1  0.50000000  0.62286522  0.97985217  1
  C  C122  1  0.50000000  0.62288991  0.72907901  1
  C  C123  1  0.50000000  0.62283673  0.85447978  1
  C  C124  1  0.50000000  0.56133591  0.52110202  1
  C  C125  1  0.50000000  0.56150831  0.89616575  1
  C  C126  1  0.50000000  0.56149321  0.64572476  1
  C  C127  1  0.50000000  0.56151668  0.77088111  1
  C  C128  1  0.50000000  0.59201995  0.54098293  1
  C  C129  1  0.50000000  0.59218921  0.91702059  1
  C  C130  1  0.50000000  0.59225185  0.66641826  1
  C  C131  1  0.50000000  0.59221523  0.79168449  1
  C  C132  1  0.50000000  0.65365004  0.08273427  1
  C  C133  1  0.50000000  0.65365004  0.58273412  1
  C  C134  1  0.50000000  0.65372968  0.45889449  1
  C  C135  1  0.50000000  0.65372968  0.95889434  1
  C  C136  1  0.50000000  0.65375306  0.20805146  1
  C  C137  1  0.50000000  0.65375306  0.70805130  1
  C  C138  1  0.50000000  0.65370194  0.33350625  1
  C  C139  1  0.50000000  0.65370194  0.83350609  1
  C  C140  1  0.50000000  0.68461339  0.10298815  1
  C  C141  1  0.50000000  0.68461339  0.60298800  1
  C  C142  1  0.50000000  0.68441020  0.47964288  1
  C  C143  1  0.50000000  0.68441020  0.97964272  1
  C  C144  1  0.50000000  0.68441028  0.22879711  1
  C  C145  1  0.50000000  0.68441028  0.72879696  1
  C  C146  1  0.50000000  0.68437125  0.35425520  1
  C  C147  1  0.50000000  0.68437125  0.85425504  1
  C  C148  1  0.50000000  0.62258393  0.52091927  1
  C  C149  1  0.50000000  0.62283673  0.89611914  1
  C  C150  1  0.50000000  0.62287509  0.64554590  1
  C  C151  1  0.50000000  0.62286522  0.77074675  1
  C  C152  1  0.50000000  0.65329252  0.04069171  1
  C  C153  1  0.50000000  0.65329252  0.54069156  1
  C  C154  1  0.50000000  0.65370194  0.41709299  1
  C  C155  1  0.50000000  0.65370194  0.91709283  1
  C  C156  1  0.50000000  0.65382157  0.16624479  1
  C  C157  1  0.50000000  0.65382157  0.66624463  1
  C  C158  1  0.50000000  0.65372968  0.29170474  1
  C  C159  1  0.50000000  0.65372968  0.79170458  1
  C  C160  1  0.50000000  0.71433237  0.08117553  1
  C  C161  1  0.50000000  0.71433237  0.58117538  1
  C  C162  1  0.50000000  0.71437001  0.45806154  1
  C  C163  1  0.50000000  0.71437001  0.95806138  1
  C  C164  1  0.50000000  0.71436744  0.20730510  1
  C  C165  1  0.50000000  0.71436744  0.70730495  1
  C  C166  1  0.50000000  0.71434275  0.33272262  1
  C  C167  1  0.50000000  0.71434275  0.83272246  1
  C  C168  1  0.50000000  0.68398311  0.02014783  1
  C  C169  1  0.50000000  0.68398311  0.52014768  1
  C  C170  1  0.50000000  0.68437125  0.39634403  1
  C  C171  1  0.50000000  0.68437125  0.89634388  1
  C  C172  1  0.50000000  0.68454819  0.14542870  1
  C  C173  1  0.50000000  0.68454819  0.64542855  1
  C  C174  1  0.50000000  0.68441020  0.27095636  1
  C  C175  1  0.50000000  0.68441020  0.77095620  1
  C  C176  1  0.50000000  0.71395492  0.04028503  1
  C  C177  1  0.50000000  0.71395492  0.54028487  1
  C  C178  1  0.50000000  0.71434275  0.41787662  1
  C  C179  1  0.50000000  0.71434275  0.91787646  1
  C  C180  1  0.50000000  0.71441985  0.16703479  1
  C  C181  1  0.50000000  0.71441985  0.66703464  1
  C  C182  1  0.50000000  0.71437001  0.29253769  1
  C  C183  1  0.50000000  0.71437001  0.79253754  1
  H  H184  1  0.50000000  0.26163243  0.09609270  1
  H  H185  1  0.50000000  0.26163243  0.59609254  1
  H  H186  1  0.50000000  0.26167088  0.47311723  1
  H  H187  1  0.50000000  0.26167088  0.97311707  1
  H  H188  1  0.50000000  0.26175301  0.22255372  1
  H  H189  1  0.50000000  0.26175301  0.72255357  1
  H  H190  1  0.50000000  0.26170737  0.34777977  1
  H  H191  1  0.50000000  0.26170737  0.84777961  1
  H  H192  1  0.50000000  0.26239307  0.02434767  1
  H  H193  1  0.50000000  0.26239307  0.52434751  1
  H  H194  1  0.50000000  0.26170737  0.40281947  1
  H  H195  1  0.50000000  0.26170737  0.90281931  1
  H  H196  1  0.50000000  0.26164006  0.15189688  1
  H  H197  1  0.50000000  0.26164006  0.65189672  1
  H  H198  1  0.50000000  0.26167088  0.27748200  1
  H  H199  1  0.50000000  0.26167088  0.77748185  1
  H  H200  1  0.50000000  0.73836757  0.09609270  1
  H  H201  1  0.50000000  0.73836757  0.59609254  1
  H  H202  1  0.50000000  0.73832912  0.47311723  1
  H  H203  1  0.50000000  0.73832912  0.97311707  1
  H  H204  1  0.50000000  0.73824699  0.22255372  1
  H  H205  1  0.50000000  0.73824699  0.72255357  1
  H  H206  1  0.50000000  0.73829263  0.34777977  1
  H  H207  1  0.50000000  0.73829263  0.84777961  1
  H  H208  1  0.50000000  0.73760693  0.02434767  1
  H  H209  1  0.50000000  0.73760693  0.52434751  1
  H  H210  1  0.50000000  0.73829264  0.40281946  1
  H  H211  1  0.50000000  0.73829264  0.90281931  1
  H  H212  1  0.50000000  0.73835994  0.15189688  1
  H  H213  1  0.50000000  0.73835994  0.65189672  1
  H  H214  1  0.50000000  0.73832912  0.27748200  1
  H  H215  1  0.50000000  0.73832912  0.77748185  1
  H  H216  1  0.50000000  0.43124419  0.09920752  1
  H  H217  1  0.50000000  0.43132205  0.47470867  1
  H  H218  1  0.50000000  0.43127024  0.22419451  1
  H  H219  1  0.50000000  0.43133839  0.34939240  1
  H  H220  1  0.50000000  0.43847282  0.01151932  1
  H  H221  1  0.50000000  0.43128288  0.02471792  1
  H  H222  1  0.50000000  0.43133839  0.40120683  1
  H  H223  1  0.50000000  0.43127223  0.15059731  1
  H  H224  1  0.50000000  0.43132205  0.27589056  1
  H  H225  1  0.50000000  0.49997515  0.01143454  1
  H  H226  1  0.50000000  0.43917482  0.48930615  1
  H  H227  1  0.50000000  0.56147662  0.01151928  1
  H  H228  1  0.50000000  0.50049254  0.48933620  1
  H  H229  1  0.50000000  0.62276030  0.01165344  1
  H  H230  1  0.50000000  0.56180359  0.48930524  1
  H  H231  1  0.50000000  0.63030143  0.09890887  1
  H  H232  1  0.50000000  0.63025524  0.47481667  1
  H  H233  1  0.50000000  0.63024205  0.22389925  1
  H  H234  1  0.50000000  0.63020640  0.34938556  1
  H  H235  1  0.50000000  0.62294412  0.48912056  1
  H  H236  1  0.50000000  0.62967348  0.02506638  1
  H  H237  1  0.50000000  0.63020640  0.40121367  1
  H  H238  1  0.50000000  0.63036268  0.15029113  1
  H  H239  1  0.50000000  0.63025525  0.27578256  1
