# generated using pymatgen
data_H11C48
_symmetry_space_group_name_H-M   'P 1'
_cell_length_a   20.00000000
_cell_length_b   40.19450000
_cell_length_c   17.42410184
_cell_angle_alpha   90.00000000
_cell_angle_beta   90.00000000
_cell_angle_gamma   90.00000000
_symmetry_Int_Tables_number   1
_chemical_formula_structural   H11C48
_chemical_formula_sum   'H22 C96'
_cell_volume   14007.06122777
_cell_formula_units_Z   2
loop_
 _symmetry_equiv_pos_site_id
 _symmetry_equiv_pos_as_xyz
  1  'x, y, z'
loop_
 _atom_site_type_symbol
 _atom_site_label
 _atom_site_symmetry_multiplicity
 _atom_site_fract_x
 _atom_site_fract_y
 _atom_site_fract_z
 _atom_site_occupancy
  C  C0  1  0.50000001  0.28418979  0.67140751  1
  C  C1  1  0.49999999  0.28295621  0.90710030  1
  C  C2  1  0.49999999  0.31506155  0.70862727  1
  C  C3  1  0.50000000  0.31236164  0.94793370  1
  C  C4  1  0.50000001  0.28299626  0.59276127  1
  C  C5  1  0.49999997  0.28417826  0.82846492  1
  C  C6  1  0.50000000  0.34570024  0.66709351  1
  C  C7  1  0.49999998  0.34915763  0.16904793  1
  C  C8  1  0.49999999  0.34470207  0.91550758  1
  C  C9  1  0.49999998  0.34866358  0.40891810  1
  C  C10  1  0.49999999  0.37673796  0.70852876  1
  C  C11  1  0.50000001  0.37917448  0.20910245  1
  C  C12  1  0.50000002  0.37597111  0.95902793  1
  C  C13  1  0.49999998  0.37710590  0.45741894  1
  C  C14  1  0.50000000  0.31242285  0.55202291  1
  C  C15  1  0.49999998  0.31506059  0.79130357  1
  C  C16  1  0.50000000  0.34473946  0.58449457  1
  C  C17  1  0.50000001  0.34866086  0.09097451  1
  C  C18  1  0.49999998  0.34568164  0.83289066  1
  C  C19  1  0.50000003  0.34917198  0.33084572  1
  C  C20  1  0.49999999  0.40731472  0.66651524  1
  C  C21  1  0.50000001  0.40882027  0.16588131  1
  C  C22  1  0.50000001  0.40683385  0.91722661  1
  C  C23  1  0.50000000  0.40816897  0.41705577  1
  C  C24  1  0.50000000  0.43828297  0.70827366  1
  C  C25  1  0.50000000  0.43905932  0.20844436  1
  C  C26  1  0.50000000  0.43822495  0.95808469  1
  C  C27  1  0.50000000  0.43864976  0.45921936  1
  C  C28  1  0.49999998  0.37598877  0.54093560  1
  C  C29  1  0.50000004  0.37711433  0.04254368  1
  C  C30  1  0.50000000  0.37674049  0.79146691  1
  C  C31  1  0.50000002  0.37918853  0.29082137  1
  C  C32  1  0.49999998  0.40683706  0.58273789  1
  C  C33  1  0.50000002  0.40817159  0.08292180  1
  C  C34  1  0.50000000  0.40730888  0.83346354  1
  C  C35  1  0.50000001  0.40882414  0.33408969  1
  C  C36  1  0.50000000  0.46923461  0.66684214  1
  C  C37  1  0.49999999  0.46913932  0.16605096  1
  C  C38  1  0.50000000  0.46915588  0.91631423  1
  C  C39  1  0.50000000  0.46916926  0.41723660  1
  C  C40  1  0.50000000  0.50030792  0.70819867  1
  C  C41  1  0.50000000  0.49920767  0.20844101  1
  C  C42  1  0.50000000  0.50005213  0.95803596  1
  C  C43  1  0.49999999  0.49968593  0.45926380  1
  C  C44  1  0.49999999  0.43822663  0.54189396  1
  C  C45  1  0.50000001  0.43865314  0.04075578  1
  C  C46  1  0.50000000  0.43827931  0.79168327  1
  C  C47  1  0.50000000  0.43906291  0.29151218  1
  C  C48  1  0.49999999  0.46915984  0.58364813  1
  C  C49  1  0.49999999  0.46917095  0.08275797  1
  C  C50  1  0.50000000  0.46925037  0.83311398  1
  C  C51  1  0.50000000  0.46914062  0.33392443  1
  C  C52  1  0.50000000  0.53115872  0.66651119  1
  C  C53  1  0.50000000  0.52944071  0.16584143  1
  C  C54  1  0.50000001  0.53143527  0.91720042  1
  C  C55  1  0.49999999  0.53016691  0.41713783  1
  C  C56  1  0.50000001  0.56192387  0.70866719  1
  C  C57  1  0.50000000  0.55902896  0.20920233  1
  C  C58  1  0.50000001  0.56218555  0.95896596  1
  C  C59  1  0.49999998  0.56126031  0.45758042  1
  C  C60  1  0.49999999  0.50005084  0.54194515  1
  C  C61  1  0.50000000  0.49968538  0.04072952  1
  C  C62  1  0.50000001  0.50030821  0.79177914  1
  C  C63  1  0.50000000  0.49920829  0.29153822  1
  C  C64  1  0.49999999  0.53143846  0.58279156  1
  C  C65  1  0.50000001  0.53017540  0.08286707  1
  C  C66  1  0.50000001  0.53115661  0.83347502  1
  C  C67  1  0.50000000  0.52944078  0.33416150  1
  C  C68  1  0.50000003  0.59296959  0.66798536  1
  C  C69  1  0.49999997  0.58904420  0.16924431  1
  C  C70  1  0.49999999  0.59333891  0.91504858  1
  C  C71  1  0.50000001  0.58967693  0.40879534  1
  C  C72  1  0.50000004  0.62384642  0.70903039  1
  C  C73  1  0.50000000  0.62489290  0.94784559  1
  C  C74  1  0.49999998  0.56219053  0.54103184  1
  C  C75  1  0.50000002  0.56126585  0.04242399  1
  C  C76  1  0.50000001  0.56192853  0.79132593  1
  C  C77  1  0.50000001  0.55903213  0.29081160  1
  C  C78  1  0.50000001  0.59334655  0.58496477  1
  C  C79  1  0.50000000  0.58968385  0.09123152  1
  C  C80  1  0.49999999  0.59296216  0.83201679  1
  C  C81  1  0.50000003  0.58904184  0.33078458  1
  C  C82  1  0.50000006  0.65552614  0.67098672  1
  C  C83  1  0.49999999  0.65544660  0.90997751  1
  C  C84  1  0.50000005  0.68707748  0.70857497  1
  C  C85  1  0.50000004  0.68533868  0.95328184  1
  C  C86  1  0.49999997  0.62491372  0.55217787  1
  C  C87  1  0.50000001  0.62383835  0.79098879  1
  C  C88  1  0.50000002  0.65546898  0.59007726  1
  C  C89  1  0.50000001  0.65551464  0.82907119  1
  C  C90  1  0.50000000  0.71635127  0.66477466  1
  C  C91  1  0.50000004  0.71566574  0.91590367  1
  C  C92  1  0.49999993  0.68537538  0.54682274  1
  C  C93  1  0.50000002  0.68706962  0.79151168  1
  C  C94  1  0.49999995  0.71569119  0.58422170  1
  C  C95  1  0.50000003  0.71633395  0.83535719  1
  H  H96  1  0.50000001  0.26078117  0.70258573  1
  H  H97  1  0.50000001  0.25915917  0.93776211  1
  H  H98  1  0.49999999  0.25921165  0.56206244  1
  H  H99  1  0.49999999  0.26078305  0.79721688  1
  H  H100  1  0.49999997  0.74057620  0.69340521  1
  H  H101  1  0.50000002  0.73900002  0.94847780  1
  H  H102  1  0.49999995  0.73903213  0.55170866  1
  H  H103  1  0.50000007  0.74055995  0.80674090  1
  H  H104  1  0.49999992  0.68395600  0.48393573  1
  H  H105  1  0.49999995  0.32524922  0.19857534  1
  H  H106  1  0.49999998  0.32369155  0.42910636  1
  H  H107  1  0.49999997  0.30752408  0.49199248  1
  H  H108  1  0.49999999  0.32371798  0.07062229  1
  H  H109  1  0.50000005  0.32526851  0.30129563  1
  H  H110  1  0.49999993  0.61293413  0.19879322  1
  H  H111  1  0.50000005  0.61483680  0.42784864  1
  H  H112  1  0.49999998  0.61484636  0.07220864  1
  H  H113  1  0.50000007  0.61292870  0.30122587  1
  H  H114  1  0.49999988  0.62911682  0.49208828  1
  H  H115  1  0.50000003  0.30737859  0.00794493  1
  H  H116  1  0.50000007  0.62908909  0.00794728  1
  H  H117  1  0.50000000  0.68389694  0.01616791  1
