# generated using pymatgen
data_H3C11
_symmetry_space_group_name_H-M   'P 1'
_cell_length_a   20.00000000
_cell_length_b   40.19450000
_cell_length_c   17.53228536
_cell_angle_alpha   90.00000000
_cell_angle_beta   90.00000000
_cell_angle_gamma   90.00000000
_symmetry_Int_Tables_number   1
_chemical_formula_structural   H3C11
_chemical_formula_sum   'H24 C88'
_cell_volume   14094.02887987
_cell_formula_units_Z   8
loop_
 _symmetry_equiv_pos_site_id
 _symmetry_equiv_pos_as_xyz
  1  'x, y, z'
loop_
 _atom_site_type_symbol
 _atom_site_label
 _atom_site_symmetry_multiplicity
 _atom_site_fract_x
 _atom_site_fract_y
 _atom_site_fract_z
 _atom_site_occupancy
  C  C0  1  0.49999999  0.28399516  0.66556659  1
  C  C1  1  0.50000004  0.28456376  0.91424435  1
  C  C2  1  0.50000000  0.31333023  0.70869134  1
  C  C3  1  0.50000007  0.31483101  0.95159122  1
  C  C4  1  0.49999996  0.28454171  0.58553820  1
  C  C5  1  0.50000002  0.28400808  0.83422069  1
  C  C6  1  0.50000000  0.34485425  0.67123774  1
  C  C7  1  0.50000005  0.34482984  0.90893811  1
  C  C8  1  0.50000000  0.37651299  0.70902961  1
  C  C9  1  0.50000010  0.37533206  0.94679375  1
  C  C10  1  0.49999993  0.31480178  0.54816101  1
  C  C11  1  0.50000000  0.31333063  0.79105548  1
  C  C12  1  0.49999995  0.34481217  0.59079675  1
  C  C13  1  0.50000000  0.34485419  0.82850141  1
  C  C14  1  0.49999999  0.40733602  0.66808022  1
  C  C15  1  0.49999998  0.41040064  0.16857168  1
  C  C16  1  0.50000003  0.40688432  0.91423510  1
  C  C17  1  0.50000006  0.40998317  0.40885537  1
  C  C18  1  0.49999999  0.43842676  0.70855532  1
  C  C19  1  0.50000000  0.44029997  0.20913044  1
  C  C20  1  0.50000001  0.43792416  0.95861694  1
  C  C21  1  0.50000001  0.43848449  0.45758723  1
  C  C22  1  0.49999991  0.37530676  0.55291515  1
  C  C23  1  0.50000000  0.37651335  0.79070212  1
  C  C24  1  0.49999997  0.40686699  0.58545416  1
  C  C25  1  0.49999994  0.40997748  0.09085801  1
  C  C26  1  0.50000000  0.40734138  0.83160704  1
  C  C27  1  0.50000003  0.41039514  0.33115716  1
  C  C28  1  0.49999999  0.46902279  0.66644021  1
  C  C29  1  0.50000000  0.46988058  0.16578099  1
  C  C30  1  0.50000000  0.46872434  0.91709341  1
  C  C31  1  0.49999998  0.46945009  0.41697999  1
  C  C32  1  0.50000000  0.49998257  0.70797175  1
  C  C33  1  0.50000000  0.49998881  0.20844882  1
  C  C34  1  0.50000000  0.49999220  0.95828555  1
  C  C35  1  0.49999998  0.49998584  0.45915904  1
  C  C36  1  0.49999999  0.43791079  0.54109858  1
  C  C37  1  0.49999999  0.43848798  0.04213118  1
  C  C38  1  0.50000000  0.43843420  0.79114727  1
  C  C39  1  0.49999999  0.44029715  0.29057459  1
  C  C40  1  0.49999999  0.46871073  0.58258802  1
  C  C41  1  0.50000001  0.46945206  0.08272342  1
  C  C42  1  0.50000000  0.46903922  0.83324700  1
  C  C43  1  0.49999999  0.46987824  0.33393055  1
  C  C44  1  0.49999999  0.53093778  0.66644293  1
  C  C45  1  0.50000000  0.53009484  0.16577674  1
  C  C46  1  0.50000000  0.53126164  0.91708113  1
  C  C47  1  0.49999998  0.53052505  0.41699252  1
  C  C48  1  0.50000000  0.56153444  0.70855030  1
  C  C49  1  0.50000000  0.55967563  0.20913651  1
  C  C50  1  0.50000001  0.56205949  0.95860992  1
  C  C51  1  0.50000001  0.56148847  0.45760340  1
  C  C52  1  0.50000000  0.49998075  0.54139495  1
  C  C53  1  0.50000001  0.49999108  0.04053514  1
  C  C54  1  0.49999999  0.49999341  0.79170303  1
  C  C55  1  0.49999999  0.49998724  0.29127589  1
  C  C56  1  0.49999999  0.53124764  0.58259657  1
  C  C57  1  0.50000001  0.53052999  0.08271999  1
  C  C58  1  0.50000000  0.53095409  0.83322278  1
  C  C59  1  0.49999998  0.53009801  0.33393787  1
  C  C60  1  0.49999999  0.59261693  0.66813843  1
  C  C61  1  0.49999997  0.58957402  0.16856433  1
  C  C62  1  0.50000003  0.59309524  0.91422375  1
  C  C63  1  0.50000007  0.58999566  0.40888192  1
  C  C64  1  0.50000000  0.62345038  0.70904617  1
  C  C65  1  0.50000009  0.62464755  0.94678135  1
  C  C66  1  0.49999998  0.56205412  0.54111736  1
  C  C67  1  0.49999999  0.56149460  0.04212254  1
  C  C68  1  0.50000000  0.56155601  0.79108858  1
  C  C69  1  0.49999999  0.55967609  0.29058624  1
  C  C70  1  0.49999996  0.59309214  0.58548862  1
  C  C71  1  0.49999994  0.59000216  0.09086142  1
  C  C72  1  0.50000001  0.59263890  0.83159323  1
  C  C73  1  0.50000003  0.58957673  0.33115096  1
  C  C74  1  0.50000000  0.65510768  0.67124878  1
  C  C75  1  0.50000005  0.65514867  0.90892941  1
  C  C76  1  0.50000001  0.68663764  0.70868806  1
  C  C77  1  0.50000006  0.68514920  0.95157360  1
  C  C78  1  0.49999989  0.62464820  0.55295335  1
  C  C79  1  0.50000000  0.62346581  0.79070364  1
  C  C80  1  0.49999994  0.65515033  0.59080981  1
  C  C81  1  0.50000001  0.65512200  0.82849491  1
  C  C82  1  0.49999999  0.71597008  0.66554884  1
  C  C83  1  0.50000004  0.71541268  0.91421902  1
  C  C84  1  0.49999993  0.68515588  0.54816486  1
  C  C85  1  0.50000000  0.68664322  0.79104506  1
  C  C86  1  0.49999996  0.71541902  0.58552358  1
  C  C87  1  0.50000002  0.71597025  0.83419524  1
  H  H88  1  0.49999999  0.25986639  0.69444341  1
  H  H89  1  0.50000006  0.26118950  0.94638182  1
  H  H90  1  0.49999995  0.26116549  0.55341333  1
  H  H91  1  0.50000002  0.25987522  0.80537529  1
  H  H92  1  0.49999999  0.74009858  0.69442474  1
  H  H93  1  0.50000006  0.73878315  0.94636068  1
  H  H94  1  0.49999995  0.73879483  0.55339444  1
  H  H95  1  0.50000002  0.74010265  0.80534886  1
  H  H96  1  0.49999991  0.68383783  0.48567606  1
  H  H97  1  0.49999992  0.31612939  0.48567533  1
  H  H98  1  0.49999995  0.61361886  0.19746449  1
  H  H99  1  0.50000022  0.61516425  0.42810867  1
  H  H100  1  0.49999984  0.61517480  0.07163304  1
  H  H101  1  0.50000006  0.61361800  0.30226691  1
  H  H102  1  0.49999972  0.62871921  0.49315379  1
  H  H103  1  0.49999996  0.38635443  0.19744886  1
  H  H104  1  0.50000017  0.38481524  0.42811482  1
  H  H105  1  0.49999980  0.37122333  0.49312103  1
  H  H106  1  0.49999982  0.38480604  0.07164222  1
  H  H107  1  0.50000005  0.38634833  0.30227560  1
  H  H108  1  0.50000009  0.31616393  0.01407050  1
  H  H109  1  0.50000026  0.37127286  0.00660202  1
  H  H110  1  0.50000023  0.62870750  0.00658590  1
  H  H111  1  0.50000008  0.68381894  0.01405164  1
