# generated using pymatgen
data_H13C40
_symmetry_space_group_name_H-M   'P 1'
_cell_length_a   20.00000000
_cell_length_b   40.19450000
_cell_length_c   17.70160945
_cell_angle_alpha   90.00000000
_cell_angle_beta   90.00000000
_cell_angle_gamma   90.00000000
_symmetry_Int_Tables_number   1
_chemical_formula_structural   H13C40
_chemical_formula_sum   'H26 C80'
_cell_volume   14230.14681927
_cell_formula_units_Z   2
loop_
 _symmetry_equiv_pos_site_id
 _symmetry_equiv_pos_as_xyz
  1  'x, y, z'
loop_
 _atom_site_type_symbol
 _atom_site_label
 _atom_site_symmetry_multiplicity
 _atom_site_fract_x
 _atom_site_fract_y
 _atom_site_fract_z
 _atom_site_occupancy
  C  C0  1  0.49999994  0.28432181  0.66636995  1
  C  C1  1  0.50000011  0.28483019  0.91270280  1
  C  C2  1  0.49999997  0.31369271  0.70907581  1
  C  C3  1  0.50000014  0.31510562  0.94973581  1
  C  C4  1  0.49999988  0.28481601  0.58712042  1
  C  C5  1  0.50000005  0.28432719  0.83346282  1
  C  C6  1  0.49999995  0.34520707  0.67190297  1
  C  C7  1  0.50000009  0.34513120  0.90765417  1
  C  C8  1  0.49999996  0.37694142  0.70931238  1
  C  C9  1  0.50000012  0.37561962  0.94548814  1
  C  C10  1  0.49999984  0.31509511  0.55009379  1
  C  C11  1  0.50000001  0.31369562  0.79074530  1
  C  C12  1  0.49999987  0.34512273  0.59216883  1
  C  C13  1  0.50000001  0.34521378  0.82792065  1
  C  C14  1  0.49999997  0.40766056  0.66850056  1
  C  C15  1  0.49999999  0.40971249  0.16808393  1
  C  C16  1  0.50000002  0.40715449  0.91344730  1
  C  C17  1  0.50000010  0.40956359  0.40904598  1
  C  C18  1  0.49999999  0.43880244  0.70861366  1
  C  C19  1  0.50000002  0.43945228  0.20935654  1
  C  C20  1  0.49999998  0.43796952  0.95903492  1
  C  C21  1  0.50000003  0.43813827  0.45794956  1
  C  C22  1  0.49999981  0.37560959  0.55434270  1
  C  C23  1  0.49999997  0.37693910  0.79049513  1
  C  C24  1  0.49999994  0.40715434  0.58637475  1
  C  C25  1  0.49999996  0.40955036  0.09079646  1
  C  C26  1  0.49999997  0.40766046  0.83131489  1
  C  C27  1  0.50000006  0.40971522  0.33177157  1
  C  C28  1  0.50000000  0.46914503  0.66598082  1
  C  C29  1  0.50000001  0.46915854  0.16574716  1
  C  C30  1  0.49999996  0.46916779  0.91818435  1
  C  C31  1  0.50000002  0.46915238  0.41699373  1
  C  C32  1  0.50000000  0.49964922  0.70858091  1
  C  C33  1  0.50000001  0.49886814  0.20937456  1
  C  C34  1  0.49999998  0.50037112  0.95916621  1
  C  C35  1  0.50000002  0.50017164  0.45790107  1
  C  C36  1  0.49999999  0.43796715  0.54079953  1
  C  C37  1  0.49999998  0.43813399  0.04190061  1
  C  C38  1  0.49999996  0.43879632  0.79119364  1
  C  C39  1  0.50000001  0.43946003  0.29048103  1
  C  C40  1  0.50000001  0.46916919  0.58164502  1
  C  C41  1  0.50000000  0.46914652  0.08284991  1
  C  C42  1  0.49999997  0.46914270  0.83382643  1
  C  C43  1  0.50000001  0.46916481  0.33408564  1
  C  C44  1  0.49999997  0.53062862  0.66846138  1
  C  C45  1  0.49999999  0.52861241  0.16809025  1
  C  C46  1  0.50000008  0.53123583  0.91373381  1
  C  C47  1  0.50000001  0.52875367  0.40902935  1
  C  C48  1  0.49999998  0.56141361  0.70950597  1
  C  C49  1  0.50000019  0.56277983  0.94560651  1
  C  C50  1  0.50000002  0.50037805  0.54067607  1
  C  C51  1  0.49999999  0.50017109  0.04194857  1
  C  C52  1  0.50000002  0.49964472  0.79123932  1
  C  C53  1  0.50000001  0.49887261  0.29046727  1
  C  C54  1  0.49999996  0.53124509  0.58607128  1
  C  C55  1  0.49999999  0.52876002  0.09081809  1
  C  C56  1  0.50000009  0.53062018  0.83135834  1
  C  C57  1  0.50000002  0.52861592  0.33177434  1
  C  C58  1  0.49999983  0.59311322  0.67217587  1
  C  C59  1  0.50000038  0.59337366  0.90771738  1
  C  C60  1  0.49999987  0.62419436  0.70981247  1
  C  C61  1  0.50000061  0.62326799  0.94859896  1
  C  C62  1  0.49999988  0.56280163  0.55421638  1
  C  C63  1  0.50000011  0.56140574  0.79036302  1
  C  C64  1  0.49999967  0.59339975  0.59216258  1
  C  C65  1  0.50000024  0.59309473  0.82770184  1
  C  C66  1  0.49999970  0.65484371  0.66928251  1
  C  C67  1  0.50000057  0.65429529  0.91194372  1
  C  C68  1  0.49999986  0.68605007  0.70851974  1
  C  C69  1  0.50000060  0.68480718  0.95243747  1
  C  C70  1  0.49999944  0.62330647  0.55133035  1
  C  C71  1  0.50000017  0.62418476  0.79010398  1
  C  C72  1  0.49999946  0.65432675  0.58799442  1
  C  C73  1  0.50000029  0.65482710  0.83066538  1
  C  C74  1  0.49999989  0.71538980  0.66575210  1
  C  C75  1  0.50000030  0.71474153  0.91380253  1
  C  C76  1  0.49999939  0.68486374  0.54754992  1
  C  C77  1  0.50000007  0.68605080  0.79145362  1
  C  C78  1  0.49999966  0.71478023  0.58620770  1
  C  C79  1  0.50000004  0.71536272  0.83426601  1
  H  H80  1  0.49999996  0.26020142  0.69501881  1
  H  H81  1  0.50000012  0.26142207  0.94446571  1
  H  H82  1  0.49999988  0.26140469  0.55536602  1
  H  H83  1  0.50000004  0.26019901  0.80483529  1
  H  H84  1  0.50000007  0.73961703  0.69395118  1
  H  H85  1  0.50000028  0.73827917  0.94510809  1
  H  H86  1  0.49999968  0.73833597  0.55495545  1
  H  H87  1  0.49999984  0.73961181  0.80611383  1
  H  H88  1  0.49999914  0.68424262  0.48562990  1
  H  H89  1  0.49999981  0.31638549  0.48822584  1
  H  H90  1  0.49999930  0.62248803  0.48936383  1
  H  H91  1  0.49999995  0.38558965  0.19652939  1
  H  H92  1  0.50000027  0.38435420  0.42842169  1
  H  H93  1  0.49999963  0.37173997  0.49496082  1
  H  H94  1  0.49999985  0.38434329  0.07142905  1
  H  H95  1  0.50000012  0.38558665  0.30333404  1
  H  H96  1  0.49999997  0.55273649  0.19651230  1
  H  H97  1  0.49999997  0.55393347  0.42852563  1
  H  H98  1  0.50000000  0.55394191  0.07134838  1
  H  H99  1  0.50000003  0.55273977  0.30335010  1
  H  H100  1  0.50000001  0.56677886  0.49482922  1
  H  H101  1  0.50000018  0.31640388  0.01160819  1
  H  H102  1  0.50000027  0.37177585  0.00488628  1
  H  H103  1  0.50000005  0.56672138  0.00499898  1
  H  H104  1  0.50000074  0.62242165  0.01055834  1
  H  H105  1  0.50000082  0.68416981  0.01434996  1
