# generated using pymatgen
data_H4C29
_symmetry_space_group_name_H-M   'P 1'
_cell_length_a   20.00000000
_cell_length_b   40.19450000
_cell_length_c   17.16357702
_cell_angle_alpha   90.00000000
_cell_angle_beta   90.00000000
_cell_angle_gamma   90.00000000
_symmetry_Int_Tables_number   1
_chemical_formula_structural   H4C29
_chemical_formula_sum   'H16 C116'
_cell_volume   13797.62793029
_cell_formula_units_Z   4
loop_
 _symmetry_equiv_pos_site_id
 _symmetry_equiv_pos_as_xyz
  1  'x, y, z'
loop_
 _atom_site_type_symbol
 _atom_site_label
 _atom_site_symmetry_multiplicity
 _atom_site_fract_x
 _atom_site_fract_y
 _atom_site_fract_z
 _atom_site_occupancy
  C  C0  1  0.50000000  0.28556376  0.66510562  1
  C  C1  1  0.50000000  0.28554913  0.16504688  1
  C  C2  1  0.50000000  0.28551944  0.91513281  1
  C  C3  1  0.50000000  0.28558190  0.41499829  1
  C  C4  1  0.50000000  0.31556574  0.70814904  1
  C  C5  1  0.50000001  0.31559098  0.20798687  1
  C  C6  1  0.50000000  0.31554445  0.95810237  1
  C  C7  1  0.49999999  0.31557991  0.45807074  1
  C  C8  1  0.50000000  0.28556471  0.58498874  1
  C  C9  1  0.50000000  0.28553368  0.08491973  1
  C  C10  1  0.50000000  0.28551339  0.83500120  1
  C  C11  1  0.50000000  0.28559890  0.33487496  1
  C  C12  1  0.50000001  0.34624327  0.66672766  1
  C  C13  1  0.49999999  0.34627985  0.16665861  1
  C  C14  1  0.50000001  0.34623600  0.91679655  1
  C  C15  1  0.50000000  0.34627734  0.41673902  1
  C  C16  1  0.50000001  0.37710065  0.70851696  1
  C  C17  1  0.49999999  0.37715066  0.20851728  1
  C  C18  1  0.50000000  0.37711581  0.95853475  1
  C  C19  1  0.50000000  0.37715312  0.45851159  1
  C  C20  1  0.50000001  0.31556488  0.54193532  1
  C  C21  1  0.50000001  0.31555851  0.04194522  1
  C  C22  1  0.50000000  0.31554098  0.79203104  1
  C  C23  1  0.49999999  0.31561427  0.29187079  1
  C  C24  1  0.50000000  0.34625116  0.58330511  1
  C  C25  1  0.50000000  0.34625819  0.08326341  1
  C  C26  1  0.50000001  0.34622496  0.83338905  1
  C  C27  1  0.50000000  0.34628905  0.33332178  1
  C  C28  1  0.50000000  0.40778491  0.66678228  1
  C  C29  1  0.49999999  0.40784444  0.16686161  1
  C  C30  1  0.50000001  0.40778585  0.91678320  1
  C  C31  1  0.50000000  0.40784283  0.41681747  1
  C  C32  1  0.50000000  0.43848695  0.70841333  1
  C  C33  1  0.49999999  0.43856171  0.20851267  1
  C  C34  1  0.50000001  0.43849996  0.95844358  1
  C  C35  1  0.50000000  0.43855016  0.45845055  1
  C  C36  1  0.50000000  0.37713328  0.54156327  1
  C  C37  1  0.50000000  0.37713930  0.04157758  1
  C  C38  1  0.50000000  0.37708660  0.79158038  1
  C  C39  1  0.49999999  0.37716484  0.29157603  1
  C  C40  1  0.50000000  0.40780484  0.58331650  1
  C  C41  1  0.49999999  0.40782377  0.08336107  1
  C  C42  1  0.50000001  0.40777099  0.83329978  1
  C  C43  1  0.49999999  0.40784744  0.33333796  1
  C  C44  1  0.50000000  0.46926882  0.66675718  1
  C  C45  1  0.50000000  0.46936030  0.16683284  1
  C  C46  1  0.50000001  0.46926803  0.91671677  1
  C  C47  1  0.50000000  0.46934214  0.41677238  1
  C  C48  1  0.50000000  0.49996110  0.70847667  1
  C  C49  1  0.50000000  0.50007419  0.20848515  1
  C  C50  1  0.50000001  0.49998031  0.95842557  1
  C  C51  1  0.50000000  0.50001713  0.45850135  1
  C  C52  1  0.50000000  0.43852734  0.54173571  1
  C  C53  1  0.50000000  0.43853347  0.04174953  1
  C  C54  1  0.50000000  0.43847906  0.79168577  1
  C  C55  1  0.49999999  0.43856870  0.29177298  1
  C  C56  1  0.50000000  0.46928543  0.58350819  1
  C  C57  1  0.50000000  0.46933422  0.08350531  1
  C  C58  1  0.50000000  0.46925181  0.83344063  1
  C  C59  1  0.50000000  0.46936511  0.33347771  1
  C  C60  1  0.50000000  0.53070635  0.66682682  1
  C  C61  1  0.50000000  0.53083723  0.16680425  1
  C  C62  1  0.50000000  0.53069842  0.91668979  1
  C  C63  1  0.50000000  0.53079152  0.41685015  1
  C  C64  1  0.50000001  0.56144721  0.70854277  1
  C  C65  1  0.49999999  0.56165029  0.20839578  1
  C  C66  1  0.50000000  0.56145695  0.95836712  1
  C  C67  1  0.50000000  0.56152035  0.45861527  1
  C  C68  1  0.50000000  0.49999229  0.54186108  1
  C  C69  1  0.50000000  0.50002498  0.04182159  1
  C  C70  1  0.50000000  0.49995839  0.79177878  1
  C  C71  1  0.50000000  0.50007798  0.29187607  1
  C  C72  1  0.50000000  0.53070319  0.58361815  1
  C  C73  1  0.50000000  0.53080226  0.08355101  1
  C  C74  1  0.50000000  0.53070006  0.83346573  1
  C  C75  1  0.49999999  0.53083258  0.33361280  1
  C  C76  1  0.50000000  0.59217961  0.66696753  1
  C  C77  1  0.50000000  0.59224381  0.16670615  1
  C  C78  1  0.49999999  0.59206569  0.91665015  1
  C  C79  1  0.50000000  0.59224931  0.41707088  1
  C  C80  1  0.50000001  0.62292036  0.70887419  1
  C  C81  1  0.50000000  0.62320533  0.20841964  1
  C  C82  1  0.49999999  0.62287883  0.95831028  1
  C  C83  1  0.50000000  0.62300814  0.45900741  1
  C  C84  1  0.50000000  0.56147100  0.54202568  1
  C  C85  1  0.50000000  0.56152576  0.04178205  1
  C  C86  1  0.50000001  0.56144086  0.79177034  1
  C  C87  1  0.49999999  0.56165339  0.29206573  1
  C  C88  1  0.50000000  0.59209154  0.58376263  1
  C  C89  1  0.50000000  0.59224377  0.08335831  1
  C  C90  1  0.50000000  0.59215979  0.83346053  1
  C  C91  1  0.49999999  0.59225720  0.33371345  1
  C  C92  1  0.50000000  0.65381967  0.66750968  1
  C  C93  1  0.49999999  0.65388572  0.16707418  1
  C  C94  1  0.49999999  0.65346533  0.91631308  1
  C  C95  1  0.50000001  0.65402994  0.41783200  1
  C  C96  1  0.49999999  0.68474971  0.70859521  1
  C  C97  1  0.50000000  0.68376246  0.21010970  1
  C  C98  1  0.49999999  0.68412197  0.95839382  1
  C  C99  1  0.50000002  0.68366053  0.46046855  1
  C  C100  1  0.50000000  0.62291358  0.54216144  1
  C  C101  1  0.49999999  0.62298772  0.04142772  1
  C  C102  1  0.50000002  0.62290768  0.79170760  1
  C  C103  1  0.50000000  0.62321459  0.29196416  1
  C  C104  1  0.50000000  0.65349685  0.58430550  1
  C  C105  1  0.49999999  0.65400289  0.08255560  1
  C  C106  1  0.50000000  0.65379375  0.83315947  1
  C  C107  1  0.50000001  0.65389129  0.33336648  1
  C  C108  1  0.49999998  0.71488974  0.66446929  1
  C  C109  1  0.50000001  0.71465795  0.91620512  1
  C  C110  1  0.50000001  0.68415864  0.54219232  1
  C  C111  1  0.49999999  0.68364427  0.04003592  1
  C  C112  1  0.50000000  0.68474141  0.79219305  1
  C  C113  1  0.50000001  0.68377721  0.29048154  1
  C  C114  1  0.50000000  0.71466755  0.58456919  1
  C  C115  1  0.50000000  0.71487697  0.83632912  1
  H  H116  1  0.50000000  0.26158805  0.69504867  1
  H  H117  1  0.50000000  0.26161477  0.19520885  1
  H  H118  1  0.50000000  0.26159853  0.94535713  1
  H  H119  1  0.50000000  0.26160280  0.44494241  1
  H  H120  1  0.50000000  0.26159282  0.55499891  1
  H  H121  1  0.50000000  0.26160842  0.05470301  1
  H  H122  1  0.50000000  0.26157920  0.80484989  1
  H  H123  1  0.50000000  0.26163128  0.30488906  1
  H  H124  1  0.49999993  0.73890807  0.69434628  1
  H  H125  1  0.50000005  0.73809088  0.94895653  1
  H  H126  1  0.50000000  0.73818888  0.55218355  1
  H  H127  1  0.50000002  0.73887304  0.80633274  1
  H  H128  1  0.49999999  0.70770375  0.17999379  1
  H  H129  1  0.50000002  0.70771054  0.43068826  1
  H  H130  1  0.49999999  0.70768611  0.06983088  1
  H  H131  1  0.50000000  0.70774167  0.32054441  1
