# generated using pymatgen
data_H7C17
_symmetry_space_group_name_H-M   'P 1'
_cell_length_a   20.00000000
_cell_length_b   40.19450000
_cell_length_c   17.87097719
_cell_angle_alpha   90.00000000
_cell_angle_beta   90.00000000
_cell_angle_gamma   90.00000000
_symmetry_Int_Tables_number   1
_chemical_formula_structural   H7C17
_chemical_formula_sum   'H28 C68'
_cell_volume   14366.29985484
_cell_formula_units_Z   4
loop_
 _symmetry_equiv_pos_site_id
 _symmetry_equiv_pos_as_xyz
  1  'x, y, z'
loop_
 _atom_site_type_symbol
 _atom_site_label
 _atom_site_symmetry_multiplicity
 _atom_site_fract_x
 _atom_site_fract_y
 _atom_site_fract_z
 _atom_site_occupancy
  C  C0  1  0.49999999  0.28357208  0.67264205  1
  C  C1  1  0.49999991  0.28280900  0.90932283  1
  C  C2  1  0.49999996  0.31395886  0.71162223  1
  C  C3  1  0.49999986  0.31248383  0.94915643  1
  C  C4  1  0.50000020  0.28310445  0.59522186  1
  C  C5  1  0.49999997  0.28342649  0.83189053  1
  C  C6  1  0.49999999  0.34461266  0.67136016  1
  C  C7  1  0.49999998  0.36035083  0.17125576  1
  C  C8  1  0.49999993  0.34389722  0.91426331  1
  C  C9  1  0.49999989  0.35448081  0.41071485  1
  C  C10  1  0.49999999  0.37559112  0.71252365  1
  C  C11  1  0.50000008  0.39005785  0.21321943  1
  C  C12  1  0.49999998  0.37489341  0.95755623  1
  C  C13  1  0.49999997  0.37778701  0.46944826  1
  C  C14  1  0.50000035  0.31284534  0.55567775  1
  C  C15  1  0.49999999  0.31388174  0.79319932  1
  C  C16  1  0.50000013  0.34420209  0.59083453  1
  C  C17  1  0.49999991  0.35398427  0.09468598  1
  C  C18  1  0.50000001  0.34445125  0.83375230  1
  C  C19  1  0.49999994  0.36070815  0.33411218  1
  C  C20  1  0.49999998  0.40612870  0.67222495  1
  C  C21  1  0.50000004  0.40627129  0.91474191  1
  C  C22  1  0.49999997  0.43687723  0.71272351  1
  C  C23  1  0.50000003  0.43709182  0.95032249  1
  C  C24  1  0.50000006  0.37527643  0.54786624  1
  C  C25  1  0.50000002  0.37730707  0.03598533  1
  C  C26  1  0.50000004  0.37550397  0.79288252  1
  C  C27  1  0.50000003  0.39024672  0.29158981  1
  C  C28  1  0.50000000  0.40658716  0.59093214  1
  C  C29  1  0.50000008  0.40597172  0.83341789  1
  C  C30  1  0.49999985  0.46788910  0.67425065  1
  C  C31  1  0.50000020  0.46788548  0.91229950  1
  C  C32  1  0.49999983  0.49871160  0.71331781  1
  C  C33  1  0.50000057  0.49811007  0.95153324  1
  C  C34  1  0.49999995  0.43746848  0.55559362  1
  C  C35  1  0.50000007  0.43678699  0.79319093  1
  C  C36  1  0.49999978  0.46821902  0.59386339  1
  C  C37  1  0.50000015  0.46771678  0.83194492  1
  C  C38  1  0.49999952  0.52940271  0.67377702  1
  C  C39  1  0.50000065  0.52909443  0.91421137  1
  C  C40  1  0.49999969  0.56002317  0.71356647  1
  C  C41  1  0.50000090  0.55953822  0.95277422  1
  C  C42  1  0.49999937  0.49855575  0.55505205  1
  C  C43  1  0.50000018  0.49862067  0.79326800  1
  C  C44  1  0.49999922  0.52945498  0.59277645  1
  C  C45  1  0.50000048  0.52922184  0.83320793  1
  C  C46  1  0.49999936  0.59085371  0.67413751  1
  C  C47  1  0.50000090  0.59034504  0.91471094  1
  C  C48  1  0.49999963  0.62144981  0.71376527  1
  C  C49  1  0.50000111  0.62084519  0.95314551  1
  C  C50  1  0.49999895  0.56001604  0.55467020  1
  C  C51  1  0.50000033  0.55993834  0.79382060  1
  C  C52  1  0.49999900  0.59073236  0.59310382  1
  C  C53  1  0.50000064  0.59066546  0.83366875  1
  C  C54  1  0.49999937  0.65226895  0.67412240  1
  C  C55  1  0.50000098  0.65153324  0.91514982  1
  C  C56  1  0.49999982  0.68332358  0.71335943  1
  C  C57  1  0.50000092  0.68214569  0.95492028  1
  C  C58  1  0.49999884  0.62133041  0.55504298  1
  C  C59  1  0.50000040  0.62135806  0.79440558  1
  C  C60  1  0.49999898  0.65193075  0.59337394  1
  C  C61  1  0.50000069  0.65208471  0.83441613  1
  C  C62  1  0.49999995  0.71280485  0.67139678  1
  C  C63  1  0.50000041  0.71204635  0.91656731  1
  C  C64  1  0.49999910  0.68262847  0.55393375  1
  C  C65  1  0.50000024  0.68322940  0.79555523  1
  C  C66  1  0.49999963  0.71243960  0.59267523  1
  C  C67  1  0.50000002  0.71261986  0.83786320  1
  H  H68  1  0.49999998  0.25992232  0.70255396  1
  H  H69  1  0.49999984  0.25906358  0.93940167  1
  H  H70  1  0.50000034  0.25942647  0.56485562  1
  H  H71  1  0.49999992  0.25988550  0.80154089  1
  H  H72  1  0.50000036  0.73692177  0.69975594  1
  H  H73  1  0.50000037  0.73560190  0.94745471  1
  H  H74  1  0.49999978  0.73606134  0.56205342  1
  H  H75  1  0.49999945  0.73681775  0.80984826  1
  H  H76  1  0.49999884  0.68220473  0.49258234  1
  H  H77  1  0.49999992  0.33740589  0.20426998  1
  H  H78  1  0.49999975  0.32788334  0.42150317  1
  H  H79  1  0.50000061  0.31084157  0.49546062  1
  H  H80  1  0.49999969  0.32737523  0.08390276  1
  H  H81  1  0.49999988  0.33766446  0.30145932  1
  H  H82  1  0.49999876  0.62139386  0.49366115  1
  H  H83  1  0.49999872  0.56006415  0.49328127  1
  H  H84  1  0.49999928  0.49832804  0.49363661  1
  H  H85  1  0.49999984  0.43931802  0.49463371  1
  H  H86  1  0.50000013  0.41413061  0.18415802  1
  H  H87  1  0.49999997  0.40322199  0.44782621  1
  H  H88  1  0.50000017  0.40272629  0.05773682  1
  H  H89  1  0.50000004  0.41444597  0.32011865  1
  H  H90  1  0.49999987  0.31048256  0.00938745  1
  H  H91  1  0.50000000  0.43891466  0.01126141  1
  H  H92  1  0.50000072  0.49770004  0.01294806  1
  H  H93  1  0.50000118  0.55941192  0.01418762  1
  H  H94  1  0.50000130  0.62074718  0.01453564  1
  H  H95  1  0.50000135  0.68161042  0.01625719  1
