# generated using pymatgen
data_H5C24
_symmetry_space_group_name_H-M   'P 1'
_cell_length_a   20.00000000
_cell_length_b   40.19450000
_cell_length_c   17.17947924
_cell_angle_alpha   90.00000000
_cell_angle_beta   90.00000000
_cell_angle_gamma   90.00000000
_symmetry_Int_Tables_number   1
_chemical_formula_structural   H5C24
_chemical_formula_sum   'H20 C96'
_cell_volume   13810.41156557
_cell_formula_units_Z   4
loop_
 _symmetry_equiv_pos_site_id
 _symmetry_equiv_pos_as_xyz
  1  'x, y, z'
loop_
 _atom_site_type_symbol
 _atom_site_label
 _atom_site_symmetry_multiplicity
 _atom_site_fract_x
 _atom_site_fract_y
 _atom_site_fract_z
 _atom_site_occupancy
  C  C0  1  0.50000003  0.28482288  0.66646532  1
  C  C1  1  0.50000005  0.28502421  0.91757539  1
  C  C2  1  0.50000001  0.31472302  0.70891640  1
  C  C3  1  0.50000005  0.31507408  0.95770048  1
  C  C4  1  0.49999991  0.28487692  0.58544200  1
  C  C5  1  0.50000001  0.28483035  0.83653124  1
  C  C6  1  0.49999999  0.34558694  0.66771857  1
  C  C7  1  0.50000000  0.34563379  0.91792309  1
  C  C8  1  0.49999998  0.37663747  0.70978718  1
  C  C9  1  0.50000003  0.37792116  0.21093041  1
  C  C10  1  0.49999998  0.37726374  0.95949347  1
  C  C11  1  0.50000000  0.37817711  0.46146855  1
  C  C12  1  0.49999992  0.31488877  0.54503289  1
  C  C13  1  0.50000000  0.31471234  0.79392417  1
  C  C14  1  0.49999999  0.34553573  0.58454800  1
  C  C15  1  0.49999999  0.34564688  0.83488419  1
  C  C16  1  0.49999997  0.40749407  0.66828655  1
  C  C17  1  0.50000003  0.40784344  0.16786725  1
  C  C18  1  0.49999996  0.40778724  0.91725905  1
  C  C19  1  0.49999999  0.40786785  0.41882882  1
  C  C20  1  0.49999999  0.43827988  0.70949185  1
  C  C21  1  0.50000005  0.43843177  0.20936305  1
  C  C22  1  0.49999997  0.43847055  0.95899241  1
  C  C23  1  0.49999998  0.43862242  0.45998179  1
  C  C24  1  0.49999999  0.37712566  0.54268246  1
  C  C25  1  0.50000001  0.37830629  0.04067612  1
  C  C26  1  0.49999998  0.37666334  0.79260903  1
  C  C27  1  0.50000000  0.37787625  0.29118863  1
  C  C28  1  0.49999997  0.40770654  0.58479266  1
  C  C29  1  0.50000001  0.40792614  0.08339889  1
  C  C30  1  0.49999998  0.40754595  0.83382498  1
  C  C31  1  0.50000000  0.40779452  0.33434347  1
  C  C32  1  0.49999999  0.46923482  0.66776536  1
  C  C33  1  0.50000008  0.46935347  0.16743012  1
  C  C34  1  0.49999999  0.46932074  0.91725177  1
  C  C35  1  0.50000000  0.46936416  0.41785560  1
  C  C36  1  0.50000002  0.49998963  0.70930517  1
  C  C37  1  0.50000009  0.49998488  0.20902948  1
  C  C38  1  0.49999999  0.49998813  0.95890148  1
  C  C39  1  0.50000000  0.49998965  0.45945291  1
  C  C40  1  0.49999997  0.43843676  0.54310295  1
  C  C41  1  0.50000001  0.43865447  0.04215578  1
  C  C42  1  0.50000000  0.43831379  0.79252332  1
  C  C43  1  0.50000003  0.43840893  0.29283544  1
  C  C44  1  0.49999998  0.46931310  0.58476602  1
  C  C45  1  0.50000003  0.46937621  0.08423115  1
  C  C46  1  0.50000001  0.46924991  0.83424014  1
  C  C47  1  0.50000003  0.46935395  0.33466744  1
  C  C48  1  0.49999999  0.53073625  0.66777091  1
  C  C49  1  0.50000007  0.53061735  0.16742854  1
  C  C50  1  0.49999999  0.53065422  0.91724627  1
  C  C51  1  0.50000000  0.53061295  0.41783814  1
  C  C52  1  0.50000000  0.56168299  0.70950321  1
  C  C53  1  0.50000005  0.56154129  0.20936587  1
  C  C54  1  0.49999998  0.56150287  0.95899756  1
  C  C55  1  0.49999998  0.56135121  0.45996818  1
  C  C56  1  0.49999997  0.49998855  0.54305526  1
  C  C57  1  0.50000000  0.49998836  0.04255819  1
  C  C58  1  0.50000003  0.49998668  0.79270323  1
  C  C59  1  0.50000007  0.49998650  0.29301880  1
  C  C60  1  0.49999998  0.53066001  0.58476900  1
  C  C61  1  0.50000003  0.53060038  0.08422332  1
  C  C62  1  0.50000001  0.53072240  0.83423489  1
  C  C63  1  0.50000003  0.53062423  0.33465587  1
  C  C64  1  0.49999997  0.59248480  0.66826880  1
  C  C65  1  0.50000004  0.59212574  0.16787297  1
  C  C66  1  0.49999996  0.59217323  0.91726899  1
  C  C67  1  0.49999999  0.59211459  0.41883538  1
  C  C68  1  0.49999998  0.62332469  0.70978296  1
  C  C69  1  0.50000003  0.62205191  0.21091717  1
  C  C70  1  0.49999998  0.62270909  0.95947585  1
  C  C71  1  0.50000000  0.62180005  0.46147569  1
  C  C72  1  0.49999997  0.56153453  0.54309546  1
  C  C73  1  0.50000000  0.56132110  0.04215138  1
  C  C74  1  0.50000001  0.56164767  0.79252318  1
  C  C75  1  0.50000002  0.56157154  0.29283602  1
  C  C76  1  0.49999997  0.59226374  0.58478173  1
  C  C77  1  0.50000001  0.59204899  0.08340843  1
  C  C78  1  0.49999999  0.59241082  0.83385190  1
  C  C79  1  0.50000000  0.59218690  0.33434628  1
  C  C80  1  0.49999999  0.65437378  0.66776319  1
  C  C81  1  0.50000000  0.65434138  0.91787609  1
  C  C82  1  0.50000001  0.68526895  0.70892719  1
  C  C83  1  0.50000005  0.68489446  0.95767814  1
  C  C84  1  0.49999999  0.62285286  0.54268454  1
  C  C85  1  0.50000001  0.62166670  0.04067450  1
  C  C86  1  0.49999999  0.62326826  0.79260527  1
  C  C87  1  0.50000001  0.62210033  0.29118953  1
  C  C88  1  0.49999999  0.65444505  0.58459119  1
  C  C89  1  0.49999998  0.65431701  0.83482457  1
  C  C90  1  0.50000003  0.71517330  0.66646797  1
  C  C91  1  0.50000004  0.71496032  0.91757598  1
  C  C92  1  0.49999992  0.68509773  0.54504672  1
  C  C93  1  0.50000000  0.68529684  0.79391470  1
  C  C94  1  0.49999991  0.71510359  0.58546384  1
  C  C95  1  0.50000000  0.71516124  0.83653341  1
  H  H96  1  0.50000014  0.26088543  0.69662195  1
  H  H97  1  0.50000008  0.26149976  0.94982112  1
  H  H98  1  0.49999977  0.26126765  0.55351441  1
  H  H99  1  0.50000000  0.26086557  0.80652724  1
  H  H100  1  0.50000015  0.73909546  0.69662653  1
  H  H101  1  0.50000008  0.73848483  0.94983164  1
  H  H102  1  0.49999978  0.73870447  0.55354166  1
  H  H103  1  0.49999999  0.73913303  0.80651588  1
  H  H104  1  0.49999988  0.68593818  0.48146061  1
  H  H105  1  0.49999988  0.31403181  0.48144708  1
  H  H106  1  0.50000005  0.64602039  0.18089982  1
  H  H107  1  0.50000000  0.64521454  0.42968153  1
  H  H108  1  0.50000000  0.64517269  0.07204401  1
  H  H109  1  0.49999999  0.64613946  0.32093525  1
  H  H110  1  0.50000005  0.35395404  0.18089994  1
  H  H111  1  0.50000000  0.35476414  0.42968818  1
  H  H112  1  0.50000000  0.35480174  0.07203909  1
  H  H113  1  0.49999999  0.35383295  0.32094105  1
  H  H114  1  0.50000007  0.31436994  0.02126136  1
  H  H115  1  0.50000007  0.68559073  0.02126503  1
