# generated using pymatgen
data_H3C10
_symmetry_space_group_name_H-M   'P 1'
_cell_length_a   20.00000000
_cell_length_b   40.19450000
_cell_length_c   17.24582110
_cell_angle_alpha   90.00000000
_cell_angle_beta   90.00000000
_cell_angle_gamma   90.00000000
_symmetry_Int_Tables_number   1
_chemical_formula_structural   H3C10
_chemical_formula_sum   'H24 C80'
_cell_volume   13863.74312498
_cell_formula_units_Z   8
loop_
 _symmetry_equiv_pos_site_id
 _symmetry_equiv_pos_as_xyz
  1  'x, y, z'
loop_
 _atom_site_type_symbol
 _atom_site_label
 _atom_site_symmetry_multiplicity
 _atom_site_fract_x
 _atom_site_fract_y
 _atom_site_fract_z
 _atom_site_occupancy
  C  C0  1  0.50000001  0.28554213  0.66589078  1
  C  C1  1  0.49999998  0.28525378  0.91620420  1
  C  C2  1  0.50000002  0.31562424  0.70947551  1
  C  C3  1  0.49999998  0.31585425  0.21146009  1
  C  C4  1  0.49999998  0.31556193  0.95870477  1
  C  C5  1  0.50000004  0.31638153  0.46245191  1
  C  C6  1  0.50000002  0.28563623  0.58617488  1
  C  C7  1  0.50000003  0.28530654  0.83644019  1
  C  C8  1  0.50000001  0.34653170  0.66867163  1
  C  C9  1  0.50000001  0.34542384  0.16830440  1
  C  C10  1  0.50000000  0.34623703  0.91690994  1
  C  C11  1  0.50000002  0.34574693  0.41977148  1
  C  C12  1  0.50000001  0.37750386  0.71000692  1
  C  C13  1  0.50000002  0.37627103  0.20981367  1
  C  C14  1  0.49999998  0.37674283  0.95920506  1
  C  C15  1  0.49999999  0.37686305  0.46092947  1
  C  C16  1  0.50000001  0.31604730  0.54414471  1
  C  C17  1  0.49999998  0.31584147  0.04049564  1
  C  C18  1  0.50000003  0.31545492  0.79307037  1
  C  C19  1  0.50000000  0.31596810  0.29206801  1
  C  C20  1  0.49999999  0.34671236  0.58595414  1
  C  C21  1  0.50000000  0.34522811  0.08342750  1
  C  C22  1  0.50000002  0.34626299  0.83414227  1
  C  C23  1  0.50000003  0.34563204  0.33505197  1
  C  C24  1  0.50000002  0.40810921  0.66867614  1
  C  C25  1  0.50000004  0.40703775  0.16803745  1
  C  C26  1  0.49999995  0.40758695  0.91771142  1
  C  C27  1  0.49999999  0.40758099  0.41949029  1
  C  C28  1  0.50000001  0.43905630  0.71029095  1
  C  C29  1  0.50000004  0.43670954  0.21076004  1
  C  C30  1  0.49999994  0.43796227  0.96009601  1
  C  C31  1  0.50000001  0.43726364  0.46205852  1
  C  C32  1  0.50000000  0.37731340  0.54383872  1
  C  C33  1  0.50000000  0.37626355  0.04209639  1
  C  C34  1  0.49999999  0.37733537  0.79296826  1
  C  C35  1  0.50000001  0.37640125  0.29339670  1
  C  C36  1  0.50000002  0.40812382  0.58549119  1
  C  C37  1  0.50000000  0.40694814  0.08351237  1
  C  C38  1  0.49999996  0.40781563  0.83458380  1
  C  C39  1  0.49999999  0.40733866  0.33474462  1
  C  C40  1  0.49999993  0.46980846  0.66900348  1
  C  C41  1  0.50000003  0.46970550  0.91867176  1
  C  C42  1  0.49999991  0.50052825  0.71056806  1
  C  C43  1  0.50000008  0.50000597  0.95736514  1
  C  C44  1  0.50000003  0.43860819  0.54331372  1
  C  C45  1  0.49999996  0.43661346  0.04119583  1
  C  C46  1  0.50000002  0.43890038  0.79342440  1
  C  C47  1  0.50000000  0.43682027  0.29132438  1
  C  C48  1  0.49999995  0.47029464  0.58524264  1
  C  C49  1  0.50000013  0.46952002  0.83499391  1
  C  C50  1  0.49999950  0.53145489  0.67038721  1
  C  C51  1  0.50000055  0.53099134  0.91808326  1
  C  C52  1  0.49999967  0.56216975  0.71135051  1
  C  C53  1  0.50000067  0.56120414  0.95845878  1
  C  C54  1  0.49999984  0.50075365  0.54712386  1
  C  C55  1  0.50000026  0.50035208  0.79378517  1
  C  C56  1  0.49999941  0.53168276  0.58683536  1
  C  C57  1  0.50000062  0.53110680  0.83454692  1
  C  C58  1  0.49999919  0.59301695  0.67070077  1
  C  C59  1  0.50000101  0.59216100  0.91963540  1
  C  C60  1  0.49999956  0.62362836  0.71199727  1
  C  C61  1  0.50000090  0.62252368  0.95989561  1
  C  C62  1  0.49999928  0.56212312  0.54724907  1
  C  C63  1  0.50000038  0.56197742  0.79428332  1
  C  C64  1  0.49999900  0.59295686  0.58687519  1
  C  C65  1  0.50000081  0.59260941  0.83581901  1
  C  C66  1  0.49999930  0.65447562  0.67122668  1
  C  C67  1  0.50000087  0.65330460  0.92088621  1
  C  C68  1  0.49999965  0.68550961  0.71211474  1
  C  C69  1  0.50000065  0.68378586  0.96256374  1
  C  C70  1  0.49999917  0.62359320  0.54767949  1
  C  C71  1  0.50000037  0.62341134  0.79547115  1
  C  C72  1  0.49999925  0.65419447  0.58757758  1
  C  C73  1  0.50000056  0.65402195  0.83726618  1
  C  C74  1  0.49999988  0.71503317  0.66872404  1
  C  C75  1  0.50000022  0.71379927  0.92325801  1
  C  C76  1  0.49999957  0.68493997  0.54686639  1
  C  C77  1  0.50000004  0.68528856  0.79736751  1
  C  C78  1  0.49999985  0.71471600  0.58711802  1
  C  C79  1  0.50000002  0.71455134  0.84165450  1
  H  H80  1  0.49999999  0.26161567  0.69601448  1
  H  H81  1  0.49999994  0.26166520  0.94814110  1
  H  H82  1  0.50000003  0.26213557  0.55380002  1
  H  H83  1  0.50000005  0.26138455  0.80624188  1
  H  H84  1  0.50000018  0.73916172  0.69807411  1
  H  H85  1  0.49999993  0.73725022  0.95572593  1
  H  H86  1  0.50000011  0.73836662  0.55541475  1
  H  H87  1  0.49999981  0.73884064  0.81302034  1
  H  H88  1  0.49999951  0.68458825  0.48329720  1
  H  H89  1  0.49999993  0.29175899  0.18197979  1
  H  H90  1  0.50000008  0.29220457  0.43335045  1
  H  H91  1  0.49999999  0.29165871  0.06961416  1
  H  H92  1  0.49999995  0.29192275  0.32165521  1
  H  H93  1  0.49999940  0.62378914  0.48410966  1
  H  H94  1  0.49999966  0.56219173  0.48363916  1
  H  H95  1  0.50000000  0.50171232  0.48371245  1
  H  H96  1  0.50000007  0.46075601  0.18113834  1
  H  H97  1  0.50000000  0.46067568  0.43022863  1
  H  H98  1  0.50000000  0.46001725  0.07295860  1
  H  H99  1  0.49999997  0.46094730  0.32046351  1
  H  H100  1  0.49999988  0.50095349  0.02079607  1
  H  H101  1  0.50000018  0.56099576  0.02204656  1
  H  H102  1  0.50000051  0.62233990  0.02348139  1
  H  H103  1  0.50000062  0.68298923  0.02610035  1
