# generated using pymatgen
data_H13C38
_symmetry_space_group_name_H-M   'P 1'
_cell_length_a   20.00000000
_cell_length_b   40.19450000
_cell_length_c   17.53297835
_cell_angle_alpha   90.00000000
_cell_angle_beta   90.00000000
_cell_angle_gamma   90.00000000
_symmetry_Int_Tables_number   1
_chemical_formula_structural   H13C38
_chemical_formula_sum   'H26 C76'
_cell_volume   14094.58596244
_cell_formula_units_Z   2
loop_
 _symmetry_equiv_pos_site_id
 _symmetry_equiv_pos_as_xyz
  1  'x, y, z'
loop_
 _atom_site_type_symbol
 _atom_site_label
 _atom_site_symmetry_multiplicity
 _atom_site_fract_x
 _atom_site_fract_y
 _atom_site_fract_z
 _atom_site_occupancy
  C  C0  1  0.49999999  0.28370200  0.66786302  1
  C  C1  1  0.49999975  0.28408752  0.91653768  1
  C  C2  1  0.49999995  0.31306031  0.71088692  1
  C  C3  1  0.49999983  0.31429339  0.95422128  1
  C  C4  1  0.50000025  0.28423215  0.58786139  1
  C  C5  1  0.49999992  0.28364660  0.83650526  1
  C  C6  1  0.50000001  0.34450627  0.67301052  1
  C  C7  1  0.50000007  0.34442642  0.91206445  1
  C  C8  1  0.49999998  0.37604714  0.71114681  1
  C  C9  1  0.50000048  0.37486092  0.95075993  1
  C  C10  1  0.50000031  0.31443956  0.55016785  1
  C  C11  1  0.49999989  0.31302506  0.79347273  1
  C  C12  1  0.50000012  0.34456008  0.59235330  1
  C  C13  1  0.49999989  0.34444949  0.83136061  1
  C  C14  1  0.49999994  0.40668767  0.66975634  1
  C  C15  1  0.49999993  0.41391209  0.17268870  1
  C  C16  1  0.50000018  0.40627973  0.91772377  1
  C  C17  1  0.49999971  0.41207114  0.40984996  1
  C  C18  1  0.49999992  0.43758547  0.71089779  1
  C  C19  1  0.50000012  0.44450557  0.21174085  1
  C  C20  1  0.50000012  0.43767652  0.96180531  1
  C  C21  1  0.49999990  0.44002792  0.45977708  1
  C  C22  1  0.50000021  0.37504026  0.55386180  1
  C  C23  1  0.49999993  0.37600872  0.79317149  1
  C  C24  1  0.50000001  0.40647180  0.58680373  1
  C  C25  1  0.49999966  0.41174124  0.09534676  1
  C  C26  1  0.49999997  0.40660444  0.83467837  1
  C  C27  1  0.49999996  0.41405838  0.33255027  1
  C  C28  1  0.49999995  0.46811703  0.66943927  1
  C  C29  1  0.50000006  0.47403060  0.16803323  1
  C  C30  1  0.50000011  0.46786470  0.91870670  1
  C  C31  1  0.50000000  0.47179843  0.42076716  1
  C  C32  1  0.49999996  0.49883854  0.71119319  1
  C  C33  1  0.50000001  0.50399185  0.21236766  1
  C  C34  1  0.50000010  0.49908903  0.95873230  1
  C  C35  1  0.50000001  0.50033571  0.46650031  1
  C  C36  1  0.49999994  0.43799824  0.54298618  1
  C  C37  1  0.49999997  0.43963185  0.04504756  1
  C  C38  1  0.49999995  0.43753224  0.79355834  1
  C  C39  1  0.50000014  0.44461912  0.29333591  1
  C  C40  1  0.49999995  0.46819449  0.58605314  1
  C  C41  1  0.50000010  0.47142033  0.08398650  1
  C  C42  1  0.50000001  0.46798843  0.83522690  1
  C  C43  1  0.50000007  0.47426766  0.33674384  1
  C  C44  1  0.50000006  0.52999138  0.67111295  1
  C  C45  1  0.49999991  0.53041279  0.91614104  1
  C  C46  1  0.50000003  0.56068128  0.71177589  1
  C  C47  1  0.49999995  0.56077041  0.95358228  1
  C  C48  1  0.49999998  0.49946447  0.54606410  1
  C  C49  1  0.50000016  0.49993478  0.03828432  1
  C  C50  1  0.49999993  0.49876466  0.79360371  1
  C  C51  1  0.50000005  0.50413831  0.29199496  1
  C  C52  1  0.50000009  0.53074476  0.58885899  1
  C  C53  1  0.49999985  0.52984169  0.83390360  1
  C  C54  1  0.50000010  0.59181938  0.67235227  1
  C  C55  1  0.49999982  0.59166289  0.91509601  1
  C  C56  1  0.50000004  0.62255060  0.71206662  1
  C  C57  1  0.49999996  0.62182219  0.95503475  1
  C  C58  1  0.50000008  0.56117892  0.55167089  1
  C  C59  1  0.49999988  0.56059392  0.79349579  1
  C  C60  1  0.50000015  0.59199977  0.59050733  1
  C  C61  1  0.49999990  0.59164009  0.83325211  1
  C  C62  1  0.50000003  0.65328843  0.67156631  1
  C  C63  1  0.50000021  0.65263899  0.91686999  1
  C  C64  1  0.50000016  0.68442882  0.71143464  1
  C  C65  1  0.50000021  0.68322284  0.95749605  1
  C  C66  1  0.49999997  0.62225819  0.55094238  1
  C  C67  1  0.50000010  0.62247456  0.79386975  1
  C  C68  1  0.49999986  0.65299611  0.58939301  1
  C  C69  1  0.50000023  0.65311636  0.83469060  1
  C  C70  1  0.50000018  0.71384463  0.66865863  1
  C  C71  1  0.50000009  0.71313190  0.91846323  1
  C  C72  1  0.49999955  0.68364580  0.54904585  1
  C  C73  1  0.50000022  0.68433132  0.79511408  1
  C  C74  1  0.49999985  0.71348226  0.58838646  1
  C  C75  1  0.50000014  0.71366666  0.83819908  1
  H  H76  1  0.49999980  0.25956138  0.69669347  1
  H  H77  1  0.49999950  0.26065789  0.94852402  1
  H  H78  1  0.50000050  0.26080177  0.55593812  1
  H  H79  1  0.50000008  0.25951511  0.80767022  1
  H  H80  1  0.50000022  0.73797200  0.69756008  1
  H  H81  1  0.49999993  0.73670926  0.94991604  1
  H  H82  1  0.49999965  0.73712232  0.55720296  1
  H  H83  1  0.50000018  0.73786106  0.80963384  1
  H  H84  1  0.49999894  0.68317309  0.48652556  1
  H  H85  1  0.50000058  0.31554376  0.48766650  1
  H  H86  1  0.49999981  0.62207912  0.48838793  1
  H  H87  1  0.49999992  0.39046898  0.20376938  1
  H  H88  1  0.49999910  0.38674563  0.42849085  1
  H  H89  1  0.50000059  0.37116326  0.49370840  1
  H  H90  1  0.49999909  0.38629489  0.07734803  1
  H  H91  1  0.49999983  0.39053242  0.30177391  1
  H  H92  1  0.49999960  0.56254796  0.48945171  1
  H  H93  1  0.49999996  0.52822633  0.18374408  1
  H  H94  1  0.50000012  0.52441203  0.43791685  1
  H  H95  1  0.50000009  0.52397501  0.06698499  1
  H  H96  1  0.50000008  0.52852006  0.32006356  1
  H  H97  1  0.49999950  0.31549015  0.01673537  1
  H  H98  1  0.50000124  0.37092674  0.01098914  1
  H  H99  1  0.50000062  0.56206253  0.01578196  1
  H  H100  1  0.49999987  0.62151212  0.01759776  1
  H  H101  1  0.50000015  0.68263608  0.02001796  1
