# generated using pymatgen
data_H9C52
_symmetry_space_group_name_H-M   'P 1'
_cell_length_a   20.00000000
_cell_length_b   40.19450000
_cell_length_c   17.17258686
_cell_angle_alpha   90.00000000
_cell_angle_beta   90.00000000
_cell_angle_gamma   90.00000000
_symmetry_Int_Tables_number   1
_chemical_formula_structural   H9C52
_chemical_formula_sum   'H18 C104'
_cell_volume   13804.87085211
_cell_formula_units_Z   2
loop_
 _symmetry_equiv_pos_site_id
 _symmetry_equiv_pos_as_xyz
  1  'x, y, z'
loop_
 _atom_site_type_symbol
 _atom_site_label
 _atom_site_symmetry_multiplicity
 _atom_site_fract_x
 _atom_site_fract_y
 _atom_site_fract_z
 _atom_site_occupancy
  C  C0  1  0.49999997  0.28527619  0.66455454  1
  C  C1  1  0.50000002  0.28534457  0.91607475  1
  C  C2  1  0.49999999  0.31536662  0.70865457  1
  C  C3  1  0.50000000  0.31621415  0.21033384  1
  C  C4  1  0.50000000  0.31583234  0.95840543  1
  C  C5  1  0.50000001  0.31641966  0.46079180  1
  C  C6  1  0.49999999  0.28547326  0.58470089  1
  C  C7  1  0.50000002  0.28515744  0.83619399  1
  C  C8  1  0.50000000  0.34628710  0.66771633  1
  C  C9  1  0.50000000  0.34605073  0.16732799  1
  C  C10  1  0.49999999  0.34649719  0.91642178  1
  C  C11  1  0.50000000  0.34601505  0.41824454  1
  C  C12  1  0.49999999  0.37717238  0.70916256  1
  C  C13  1  0.50000002  0.37672718  0.20879163  1
  C  C14  1  0.49999999  0.37706890  0.95855281  1
  C  C15  1  0.49999998  0.37702446  0.45940746  1
  C  C16  1  0.50000000  0.31595896  0.54246578  1
  C  C17  1  0.49999999  0.31629537  0.04014307  1
  C  C18  1  0.50000000  0.31530907  0.79226141  1
  C  C19  1  0.50000001  0.31621283  0.29073399  1
  C  C20  1  0.50000001  0.34660261  0.58456030  1
  C  C21  1  0.49999999  0.34588006  0.08274842  1
  C  C22  1  0.50000000  0.34621174  0.83328814  1
  C  C23  1  0.50000001  0.34607899  0.33370750  1
  C  C24  1  0.50000001  0.40790268  0.66740286  1
  C  C25  1  0.50000001  0.40767464  0.16708832  1
  C  C26  1  0.50000001  0.40789644  0.91698741  1
  C  C27  1  0.49999999  0.40772230  0.41748397  1
  C  C28  1  0.50000002  0.43859907  0.70904393  1
  C  C29  1  0.50000001  0.43823011  0.20870910  1
  C  C30  1  0.50000001  0.43846308  0.95872358  1
  C  C31  1  0.50000000  0.43840410  0.45906900  1
  C  C32  1  0.50000001  0.37717653  0.54250902  1
  C  C33  1  0.49999999  0.37691607  0.04166602  1
  C  C34  1  0.50000000  0.37713251  0.79196441  1
  C  C35  1  0.50000002  0.37673521  0.29231393  1
  C  C36  1  0.50000001  0.40797962  0.58417221  1
  C  C37  1  0.50000001  0.40764236  0.08364919  1
  C  C38  1  0.50000001  0.40785084  0.83377501  1
  C  C39  1  0.50000001  0.40769985  0.33404814  1
  C  C40  1  0.50000001  0.46935537  0.66737165  1
  C  C41  1  0.50000000  0.46904405  0.16710335  1
  C  C42  1  0.50000001  0.46924581  0.91707001  1
  C  C43  1  0.49999999  0.46911440  0.41733656  1
  C  C44  1  0.50000001  0.50009807  0.70904066  1
  C  C45  1  0.49999999  0.49980255  0.20879723  1
  C  C46  1  0.50000001  0.49992373  0.95874794  1
  C  C47  1  0.49999999  0.49984942  0.45915072  1
  C  C48  1  0.50000000  0.43854938  0.54249235  1
  C  C49  1  0.50000001  0.43833687  0.04214540  1
  C  C50  1  0.50000002  0.43857237  0.79221707  1
  C  C51  1  0.50000000  0.43824655  0.29246193  1
  C  C52  1  0.50000000  0.46931696  0.58423432  1
  C  C53  1  0.50000002  0.46905691  0.08392440  1
  C  C54  1  0.50000002  0.46931079  0.83394073  1
  C  C55  1  0.49999999  0.46907024  0.33413533  1
  C  C56  1  0.49999999  0.53080231  0.66751586  1
  C  C57  1  0.50000000  0.53038428  0.16725762  1
  C  C58  1  0.50000001  0.53057516  0.91705639  1
  C  C59  1  0.49999999  0.53045712  0.41762737  1
  C  C60  1  0.49999998  0.56168251  0.70925893  1
  C  C61  1  0.50000000  0.56128957  0.20913634  1
  C  C62  1  0.49999999  0.56134348  0.95881680  1
  C  C63  1  0.49999999  0.56121229  0.45966766  1
  C  C64  1  0.49999999  0.50001014  0.54263785  1
  C  C65  1  0.50000002  0.49979362  0.04223038  1
  C  C66  1  0.50000001  0.50006991  0.79233822  1
  C  C67  1  0.49999999  0.49983643  0.29254124  1
  C  C68  1  0.49999998  0.53067886  0.58441199  1
  C  C69  1  0.50000001  0.53036957  0.08391651  1
  C  C70  1  0.50000001  0.53074978  0.83395612  1
  C  C71  1  0.49999999  0.53041806  0.33429491  1
  C  C72  1  0.49999997  0.59248506  0.66805326  1
  C  C73  1  0.50000001  0.59189732  0.16763407  1
  C  C74  1  0.49999999  0.59207724  0.91713865  1
  C  C75  1  0.50000000  0.59200061  0.41853054  1
  C  C76  1  0.49999997  0.62332326  0.70961585  1
  C  C77  1  0.50000004  0.62181823  0.21059178  1
  C  C78  1  0.49999998  0.62258570  0.95938243  1
  C  C79  1  0.50000001  0.62170301  0.46111109  1
  C  C80  1  0.49999998  0.56150785  0.54282322  1
  C  C81  1  0.49999999  0.56109183  0.04197137  1
  C  C82  1  0.50000000  0.56164184  0.79232290  1
  C  C83  1  0.50000000  0.56134365  0.29260675  1
  C  C84  1  0.49999998  0.59227576  0.58458123  1
  C  C85  1  0.49999999  0.59183888  0.08319105  1
  C  C86  1  0.50000000  0.59239007  0.83372130  1
  C  C87  1  0.50000000  0.59201335  0.33404201  1
  C  C88  1  0.49999999  0.65438334  0.66763269  1
  C  C89  1  0.49999999  0.65420150  0.91797048  1
  C  C90  1  0.50000000  0.68523456  0.70898225  1
  C  C91  1  0.50000005  0.68472042  0.95797634  1
  C  C92  1  0.50000000  0.62284881  0.54243220  1
  C  C93  1  0.49999998  0.62148602  0.04062763  1
  C  C94  1  0.49999999  0.62327773  0.79251895  1
  C  C95  1  0.50000000  0.62188270  0.29089780  1
  C  C96  1  0.49999999  0.65445077  0.58440162  1
  C  C97  1  0.49999998  0.65424874  0.83488187  1
  C  C98  1  0.50000002  0.71516216  0.66662555  1
  C  C99  1  0.50000007  0.71480443  0.91794157  1
  C  C100  1  0.49999993  0.68513565  0.54498596  1
  C  C101  1  0.49999999  0.68520246  0.79401778  1
  C  C102  1  0.49999990  0.71510913  0.58554833  1
  C  C103  1  0.50000000  0.71503220  0.83682543  1
  H  H104  1  0.49999993  0.26131335  0.69456993  1
  H  H105  1  0.50000005  0.26187525  0.94863928  1
  H  H106  1  0.49999999  0.26200331  0.55214445  1
  H  H107  1  0.50000004  0.26119662  0.80609743  1
  H  H108  1  0.50000014  0.73907945  0.69687955  1
  H  H109  1  0.50000015  0.73830553  0.95034206  1
  H  H110  1  0.49999976  0.73874737  0.55371210  1
  H  H111  1  0.49999997  0.73905380  0.80700717  1
  H  H112  1  0.49999990  0.68601421  0.48137633  1
  H  H113  1  0.50000008  0.64578594  0.18060104  1
  H  H114  1  0.50000000  0.64510063  0.42920686  1
  H  H115  1  0.50000000  0.64492828  0.07229240  1
  H  H116  1  0.49999997  0.64591477  0.32066233  1
  H  H117  1  0.49999999  0.29227344  0.18028314  1
  H  H118  1  0.50000003  0.29238355  0.43097666  1
  H  H119  1  0.49999999  0.29219542  0.06966546  1
  H  H120  1  0.50000001  0.29223152  0.32070257  1
  H  H121  1  0.50000007  0.68532810  0.02159012  1
