# generated using pymatgen
data_H5C26
_symmetry_space_group_name_H-M   'P 1'
_cell_length_a   20.00000000
_cell_length_b   40.19450000
_cell_length_c   17.35900941
_cell_angle_alpha   90.00000000
_cell_angle_beta   90.00000000
_cell_angle_gamma   90.00000000
_symmetry_Int_Tables_number   1
_chemical_formula_structural   H5C26
_chemical_formula_sum   'H20 C104'
_cell_volume   13954.73407559
_cell_formula_units_Z   4
loop_
 _symmetry_equiv_pos_site_id
 _symmetry_equiv_pos_as_xyz
  1  'x, y, z'
loop_
 _atom_site_type_symbol
 _atom_site_label
 _atom_site_symmetry_multiplicity
 _atom_site_fract_x
 _atom_site_fract_y
 _atom_site_fract_z
 _atom_site_occupancy
  C  C0  1  0.50000002  0.28402810  0.67110501  1
  C  C1  1  0.49999996  0.28285540  0.90758825  1
  C  C2  1  0.49999999  0.31493446  0.70845163  1
  C  C3  1  0.50000000  0.31231137  0.94849664  1
  C  C4  1  0.50000004  0.28288636  0.59223031  1
  C  C5  1  0.49999997  0.28401495  0.82870705  1
  C  C6  1  0.50000000  0.34553811  0.66677147  1
  C  C7  1  0.49999998  0.34950737  0.16932504  1
  C  C8  1  0.50000001  0.34461419  0.91592698  1
  C  C9  1  0.50000000  0.34888013  0.40858659  1
  C  C10  1  0.49999999  0.37656582  0.70852989  1
  C  C11  1  0.50000000  0.37965195  0.20916005  1
  C  C12  1  0.50000002  0.37602553  0.95934532  1
  C  C13  1  0.49999998  0.37733877  0.45713539  1
  C  C14  1  0.49999999  0.31235827  0.55139257  1
  C  C15  1  0.49999998  0.31493286  0.79140042  1
  C  C16  1  0.49999999  0.34464162  0.58397913  1
  C  C17  1  0.50000001  0.34889295  0.09122383  1
  C  C18  1  0.50000000  0.34552872  0.83309892  1
  C  C19  1  0.50000002  0.34950192  0.33047345  1
  C  C20  1  0.49999999  0.40717661  0.66660021  1
  C  C21  1  0.50000002  0.40930416  0.16596406  1
  C  C22  1  0.50000001  0.40680543  0.91722491  1
  C  C23  1  0.50000000  0.40847984  0.41696744  1
  C  C24  1  0.50000000  0.43805319  0.70832488  1
  C  C25  1  0.50000002  0.43960533  0.20837653  1
  C  C26  1  0.50000000  0.43817920  0.95801487  1
  C  C27  1  0.50000000  0.43884130  0.45921366  1
  C  C28  1  0.49999998  0.37603538  0.54053268  1
  C  C29  1  0.50000002  0.37735899  0.04272748  1
  C  C30  1  0.50000001  0.37655674  0.79134760  1
  C  C31  1  0.50000001  0.37965701  0.29068991  1
  C  C32  1  0.49999999  0.40681880  0.58266115  1
  C  C33  1  0.50000002  0.40848620  0.08293102  1
  C  C34  1  0.50000001  0.40716209  0.83329823  1
  C  C35  1  0.50000000  0.40930926  0.33390697  1
  C  C36  1  0.50000001  0.46909746  0.66682286  1
  C  C37  1  0.50000000  0.46975612  0.16584233  1
  C  C38  1  0.49999999  0.46905031  0.91586466  1
  C  C39  1  0.50000000  0.46950940  0.41716316  1
  C  C40  1  0.50000000  0.49999478  0.70826247  1
  C  C41  1  0.50000000  0.49998824  0.20822543  1
  C  C42  1  0.49999999  0.49999229  0.95734253  1
  C  C43  1  0.50000000  0.49999452  0.45917537  1
  C  C44  1  0.50000000  0.43818606  0.54189446  1
  C  C45  1  0.50000000  0.43883939  0.04069429  1
  C  C46  1  0.50000001  0.43804496  0.79157933  1
  C  C47  1  0.50000001  0.43961881  0.29150416  1
  C  C48  1  0.50000001  0.46905772  0.58403485  1
  C  C49  1  0.49999999  0.46950840  0.08271656  1
  C  C50  1  0.50000000  0.46908489  0.83307952  1
  C  C51  1  0.50000001  0.46976568  0.33404680  1
  C  C52  1  0.50000000  0.53088873  0.66683467  1
  C  C53  1  0.49999999  0.53022167  0.16582285  1
  C  C54  1  0.49999999  0.53092937  0.91586829  1
  C  C55  1  0.50000000  0.53047975  0.41714735  1
  C  C56  1  0.50000000  0.56193724  0.70833045  1
  C  C57  1  0.50000002  0.56037572  0.20836717  1
  C  C58  1  0.50000000  0.56179837  0.95799540  1
  C  C59  1  0.50000000  0.56114792  0.45917980  1
  C  C60  1  0.50000000  0.49999766  0.54252174  1
  C  C61  1  0.49999999  0.49999201  0.04068001  1
  C  C62  1  0.50000000  0.49999149  0.79166893  1
  C  C63  1  0.50000000  0.49999226  0.29163268  1
  C  C64  1  0.50000000  0.53092432  0.58401570  1
  C  C65  1  0.49999999  0.53048183  0.08270124  1
  C  C66  1  0.50000000  0.53088357  0.83306591  1
  C  C67  1  0.50000001  0.53022289  0.33402586  1
  C  C68  1  0.49999999  0.59280009  0.66659019  1
  C  C69  1  0.50000002  0.59067926  0.16595122  1
  C  C70  1  0.50000001  0.59316705  0.91721708  1
  C  C71  1  0.50000000  0.59151772  0.41697527  1
  C  C72  1  0.49999999  0.62341160  0.70854226  1
  C  C73  1  0.50000000  0.62033363  0.20914994  1
  C  C74  1  0.50000002  0.62395462  0.95933068  1
  C  C75  1  0.49999998  0.62265850  0.45716050  1
  C  C76  1  0.50000000  0.56179891  0.54186935  1
  C  C77  1  0.50000000  0.56115011  0.04067876  1
  C  C78  1  0.50000001  0.56192666  0.79156724  1
  C  C79  1  0.50000001  0.56037580  0.29150046  1
  C  C80  1  0.49999998  0.59316005  0.58265962  1
  C  C81  1  0.50000001  0.59150863  0.08291151  1
  C  C82  1  0.50000001  0.59279771  0.83329363  1
  C  C83  1  0.50000000  0.59068272  0.33390312  1
  C  C84  1  0.50000000  0.65443218  0.66679762  1
  C  C85  1  0.49999998  0.65048389  0.16935198  1
  C  C86  1  0.50000001  0.65535194  0.91590517  1
  C  C87  1  0.49999999  0.65111568  0.40857690  1
  C  C88  1  0.49999998  0.68503663  0.70846799  1
  C  C89  1  0.50000001  0.68764434  0.94846778  1
  C  C90  1  0.49999998  0.62393735  0.54055324  1
  C  C91  1  0.50000002  0.62263979  0.04271789  1
  C  C92  1  0.50000000  0.62340912  0.79135019  1
  C  C93  1  0.50000001  0.62033076  0.29067782  1
  C  C94  1  0.50000000  0.65531782  0.58402212  1
  C  C95  1  0.50000000  0.65110767  0.09123749  1
  C  C96  1  0.49999999  0.65444215  0.83309814  1
  C  C97  1  0.50000002  0.65048029  0.33046185  1
  C  C98  1  0.50000001  0.71594179  0.67108958  1
  C  C99  1  0.49999996  0.71711198  0.90760548  1
  C  C100  1  0.50000000  0.68758650  0.55141180  1
  C  C101  1  0.49999998  0.68504694  0.79141567  1
  C  C102  1  0.50000004  0.71707158  0.59221288  1
  C  C103  1  0.49999996  0.71596489  0.82872177  1
  H  H104  1  0.50000005  0.26062512  0.70242700  1
  H  H105  1  0.49999998  0.25908560  0.93849317  1
  H  H106  1  0.50000001  0.25913482  0.56129135  1
  H  H107  1  0.49999995  0.26062206  0.79733238  1
  H  H108  1  0.50000004  0.73934942  0.70239920  1
  H  H109  1  0.49999999  0.74087148  0.93852671  1
  H  H110  1  0.50000001  0.74081358  0.56120022  1
  H  H111  1  0.49999994  0.73935829  0.79731978  1
  H  H112  1  0.49999996  0.67433137  0.19912764  1
  H  H113  1  0.50000000  0.67604975  0.42887982  1
  H  H114  1  0.49999998  0.67600995  0.07075942  1
  H  H115  1  0.50000004  0.67431304  0.30061644  1
  H  H116  1  0.49999997  0.69248593  0.49117117  1
  H  H117  1  0.49999997  0.32566669  0.19911420  1
  H  H118  1  0.50000001  0.32396948  0.42901727  1
  H  H119  1  0.49999995  0.30738761  0.49115619  1
  H  H120  1  0.49999999  0.32400864  0.07062271  1
  H  H121  1  0.50000003  0.32566492  0.30063935  1
  H  H122  1  0.50000004  0.30724763  0.00872126  1
  H  H123  1  0.50000006  0.69263846  0.00869477  1
