# generated using pymatgen
data_H7C18
_symmetry_space_group_name_H-M   'P 1'
_cell_length_a   20.00000000
_cell_length_b   40.19450000
_cell_length_c   18.08252859
_cell_angle_alpha   90.00000000
_cell_angle_beta   90.00000000
_cell_angle_gamma   90.00000000
_symmetry_Int_Tables_number   1
_chemical_formula_structural   H7C18
_chemical_formula_sum   'H28 C72'
_cell_volume   14536.36390744
_cell_formula_units_Z   4
loop_
 _symmetry_equiv_pos_site_id
 _symmetry_equiv_pos_as_xyz
  1  'x, y, z'
loop_
 _atom_site_type_symbol
 _atom_site_label
 _atom_site_symmetry_multiplicity
 _atom_site_fract_x
 _atom_site_fract_y
 _atom_site_fract_z
 _atom_site_occupancy
  C  C0  1  0.50000006  0.28517828  0.66828398  1
  C  C1  1  0.49999999  0.28550290  0.90908621  1
  C  C2  1  0.50000006  0.31464364  0.70981664  1
  C  C3  1  0.50000022  0.31564207  0.94592629  1
  C  C4  1  0.50000001  0.28554186  0.59069256  1
  C  C5  1  0.49999999  0.28515108  0.83149536  1
  C  C6  1  0.50000005  0.34596969  0.67283377  1
  C  C7  1  0.50000029  0.34591229  0.90546943  1
  C  C8  1  0.50000007  0.37758493  0.70977817  1
  C  C9  1  0.50000061  0.37618529  0.94352068  1
  C  C10  1  0.49999972  0.31568063  0.55386689  1
  C  C11  1  0.50000003  0.31462920  0.78998696  1
  C  C12  1  0.49999965  0.34593684  0.59434256  1
  C  C13  1  0.50000001  0.34594988  0.82698597  1
  C  C14  1  0.50000015  0.40806479  0.66882558  1
  C  C15  1  0.49999969  0.40942749  0.16661122  1
  C  C16  1  0.50000003  0.40800763  0.91255990  1
  C  C17  1  0.50000086  0.40963615  0.41011221  1
  C  C18  1  0.50000006  0.43860703  0.70963849  1
  C  C19  1  0.49999995  0.43847577  0.20964273  1
  C  C20  1  0.49999997  0.43858470  0.95769644  1
  C  C21  1  0.50000044  0.43852601  0.45759335  1
  C  C22  1  0.49999916  0.37619585  0.55625393  1
  C  C23  1  0.49999995  0.37757159  0.79001911  1
  C  C24  1  0.49999991  0.40801497  0.58719121  1
  C  C25  1  0.49999932  0.40961083  0.08971008  1
  C  C26  1  0.49999986  0.40805992  0.83092897  1
  C  C27  1  0.50000039  0.40945745  0.33321708  1
  C  C28  1  0.49999987  0.46883993  0.66887582  1
  C  C29  1  0.49999972  0.46751549  0.16658649  1
  C  C30  1  0.50000041  0.46908160  0.91270424  1
  C  C31  1  0.50000050  0.46737818  0.41005812  1
  C  C32  1  0.49999990  0.49950166  0.70992394  1
  C  C33  1  0.50000118  0.50097327  0.94352714  1
  C  C34  1  0.50000003  0.43859269  0.54206681  1
  C  C35  1  0.49999958  0.43849635  0.04218368  1
  C  C36  1  0.49999996  0.43860751  0.79012155  1
  C  C37  1  0.50000001  0.43849478  0.29015528  1
  C  C38  1  0.49999965  0.46907718  0.58706808  1
  C  C39  1  0.49999935  0.46735188  0.08970676  1
  C  C40  1  0.50000016  0.46884655  0.83088885  1
  C  C41  1  0.50000019  0.46754742  0.33317335  1
  C  C42  1  0.49999987  0.53093697  0.67314715  1
  C  C43  1  0.50000080  0.53129730  0.90543073  1
  C  C44  1  0.50000013  0.56182137  0.71063877  1
  C  C45  1  0.50000070  0.56144161  0.94464298  1
  C  C46  1  0.49999900  0.50096522  0.55622388  1
  C  C47  1  0.50000020  0.49951070  0.78983277  1
  C  C48  1  0.49999934  0.53128610  0.59432321  1
  C  C49  1  0.50000026  0.53094947  0.82660091  1
  C  C50  1  0.50000042  0.59260522  0.67133533  1
  C  C51  1  0.49999992  0.59244742  0.90828547  1
  C  C52  1  0.50000024  0.62321658  0.71013693  1
  C  C53  1  0.50000025  0.62287806  0.94653241  1
  C  C54  1  0.49999943  0.56143336  0.55510104  1
  C  C55  1  0.49999998  0.56183849  0.78914382  1
  C  C56  1  0.50000010  0.59243915  0.59149818  1
  C  C57  1  0.49999958  0.59263573  0.82845964  1
  C  C58  1  0.50000034  0.65397797  0.67079737  1
  C  C59  1  0.49999981  0.65354288  0.90894631  1
  C  C60  1  0.50000004  0.68504992  0.70942990  1
  C  C61  1  0.50000033  0.68421828  0.94798842  1
  C  C62  1  0.49999973  0.62288531  0.55331700  1
  C  C63  1  0.49999963  0.62324336  0.78973485  1
  C  C64  1  0.50000007  0.65353443  0.59104094  1
  C  C65  1  0.49999946  0.65400129  0.82917696  1
  C  C66  1  0.50000008  0.71448785  0.66795845  1
  C  C67  1  0.50000017  0.71405327  0.90985795  1
  C  C68  1  0.49999960  0.68420411  0.55198970  1
  C  C69  1  0.49999968  0.68508167  0.79059859  1
  C  C70  1  0.49999976  0.71402705  0.59019835  1
  C  C71  1  0.49999977  0.71453163  0.83207644  1
  H  H72  1  0.50000008  0.26111132  0.69650576  1
  H  H73  1  0.49999979  0.26201876  0.93988166  1
  H  H74  1  0.50000023  0.26206142  0.55990760  1
  H  H75  1  0.49999995  0.26108058  0.80329761  1
  H  H76  1  0.50000027  0.73861759  0.69595478  1
  H  H77  1  0.50000049  0.73764576  0.94018887  1
  H  H78  1  0.49999958  0.73763465  0.55996268  1
  H  H79  1  0.49999981  0.73868275  0.80417060  1
  H  H80  1  0.49999907  0.68379855  0.49138705  1
  H  H81  1  0.49999975  0.31678184  0.49327768  1
  H  H82  1  0.49999835  0.62289209  0.49263565  1
  H  H83  1  0.49999958  0.38499836  0.19335641  1
  H  H84  1  0.50000207  0.38430199  0.42928576  1
  H  H85  1  0.49999754  0.37255979  0.49777145  1
  H  H86  1  0.49999839  0.38428178  0.07050757  1
  H  H87  1  0.50000061  0.38504049  0.30643593  1
  H  H88  1  0.49999908  0.56072675  0.49447735  1
  H  H89  1  0.49999966  0.49193380  0.19333839  1
  H  H90  1  0.50000116  0.49269462  0.42929950  1
  H  H91  1  0.49999843  0.49269166  0.07058250  1
  H  H92  1  0.50000030  0.49197060  0.30643700  1
  H  H93  1  0.49999824  0.50456857  0.49772469  1
  H  H94  1  0.50000017  0.31673012  0.00650964  1
  H  H95  1  0.50000190  0.37254986  0.00199468  1
  H  H96  1  0.50000209  0.50453358  0.00202928  1
  H  H97  1  0.50000107  0.56080185  0.00526168  1
  H  H98  1  0.50000168  0.62284336  0.00722229  1
  H  H99  1  0.50000099  0.68376143  0.00860953  1
