# generated using pymatgen
data_H2C7
_symmetry_space_group_name_H-M   'P 1'
_cell_length_a   20.00000000
_cell_length_b   40.19450000
_cell_length_c   17.40906327
_cell_angle_alpha   90.00000000
_cell_angle_beta   90.00000000
_cell_angle_gamma   90.00000000
_symmetry_Int_Tables_number   1
_chemical_formula_structural   H2C7
_chemical_formula_sum   'H24 C84'
_cell_volume   13994.97187149
_cell_formula_units_Z   12
loop_
 _symmetry_equiv_pos_site_id
 _symmetry_equiv_pos_as_xyz
  1  'x, y, z'
loop_
 _atom_site_type_symbol
 _atom_site_label
 _atom_site_symmetry_multiplicity
 _atom_site_fract_x
 _atom_site_fract_y
 _atom_site_fract_z
 _atom_site_occupancy
  C  C0  1  0.49999997  0.28565736  0.66674632  1
  C  C1  1  0.50000009  0.28552038  0.91335550  1
  C  C2  1  0.50000001  0.31558140  0.70818591  1
  C  C3  1  0.50000002  0.31540942  0.95330438  1
  C  C4  1  0.49999990  0.28552285  0.58675408  1
  C  C5  1  0.50000003  0.28565291  0.83336850  1
  C  C6  1  0.50000002  0.34650417  0.66764399  1
  C  C7  1  0.49999999  0.34617131  0.91447517  1
  C  C8  1  0.50000000  0.37765605  0.70884489  1
  C  C9  1  0.49999999  0.37536491  0.21000722  1
  C  C10  1  0.50000000  0.37748035  0.95636431  1
  C  C11  1  0.49999999  0.37743953  0.46296224  1
  C  C12  1  0.49999997  0.31540806  0.54679440  1
  C  C13  1  0.50000001  0.31557302  0.79189044  1
  C  C14  1  0.50000002  0.34616329  0.58562538  1
  C  C15  1  0.50000000  0.34650393  0.83246832  1
  C  C16  1  0.49999999  0.40832685  0.66770258  1
  C  C17  1  0.50000000  0.40509950  0.16619837  1
  C  C18  1  0.50000000  0.40825247  0.91527964  1
  C  C19  1  0.50000000  0.40630087  0.41865826  1
  C  C20  1  0.49999997  0.43939546  0.70850744  1
  C  C21  1  0.50000004  0.43532927  0.20830249  1
  C  C22  1  0.50000000  0.43862706  0.95792073  1
  C  C23  1  0.49999998  0.43739900  0.45962345  1
  C  C24  1  0.50000001  0.37746968  0.54371826  1
  C  C25  1  0.50000000  0.37745477  0.03713629  1
  C  C26  1  0.50000000  0.37765715  0.79125705  1
  C  C27  1  0.50000001  0.37536354  0.29006002  1
  C  C28  1  0.49999999  0.40824370  0.58482064  1
  C  C29  1  0.49999999  0.40631429  0.08144437  1
  C  C30  1  0.50000000  0.40834296  0.83237307  1
  C  C31  1  0.50000002  0.40509462  0.33388615  1
  C  C32  1  0.49999998  0.47004337  0.66652975  1
  C  C33  1  0.50000003  0.46608824  0.16599030  1
  C  C34  1  0.50000000  0.47014835  0.91735613  1
  C  C35  1  0.49999998  0.46757562  0.41701098  1
  C  C36  1  0.49999999  0.50077507  0.70853087  1
  C  C37  1  0.50000003  0.49559947  0.20914309  1
  C  C38  1  0.49999999  0.50056368  0.95946330  1
  C  C39  1  0.50000000  0.49886236  0.45694897  1
  C  C40  1  0.49999997  0.43862063  0.54218517  1
  C  C41  1  0.50000000  0.43740882  0.04047554  1
  C  C42  1  0.49999999  0.43941880  0.79167344  1
  C  C43  1  0.50000003  0.43532635  0.29177955  1
  C  C44  1  0.49999998  0.47013973  0.58278445  1
  C  C45  1  0.50000002  0.46758710  0.08308101  1
  C  C46  1  0.49999998  0.47005955  0.83361721  1
  C  C47  1  0.50000001  0.46608361  0.33410093  1
  C  C48  1  0.49999999  0.53156608  0.66755686  1
  C  C49  1  0.49999997  0.52584493  0.17000893  1
  C  C50  1  0.50000002  0.53199555  0.91595713  1
  C  C51  1  0.50000003  0.52704377  0.40813984  1
  C  C52  1  0.49999996  0.56238838  0.70912647  1
  C  C53  1  0.50000019  0.56357051  0.94889771  1
  C  C54  1  0.50000001  0.50055067  0.54063369  1
  C  C55  1  0.50000000  0.49887919  0.04314965  1
  C  C56  1  0.49999996  0.50077431  0.79157597  1
  C  C57  1  0.50000003  0.49560242  0.29098467  1
  C  C58  1  0.50000000  0.53199336  0.58407622  1
  C  C59  1  0.49999995  0.52704523  0.09201069  1
  C  C60  1  0.49999998  0.53155165  0.83256555  1
  C  C61  1  0.50000005  0.52585012  0.33013014  1
  C  C62  1  0.49999982  0.59395683  0.67112333  1
  C  C63  1  0.50000042  0.59416084  0.91044726  1
  C  C64  1  0.49999988  0.62502184  0.70936714  1
  C  C65  1  0.50000077  0.62405977  0.95208888  1
  C  C66  1  0.49999986  0.56359839  0.55124365  1
  C  C67  1  0.50000005  0.56237526  0.79117504  1
  C  C68  1  0.49999965  0.59417203  0.58980065  1
  C  C69  1  0.50000030  0.59395154  0.82913682  1
  C  C70  1  0.49999941  0.65564255  0.66814829  1
  C  C71  1  0.50000091  0.65506370  0.91481451  1
  C  C72  1  0.49999976  0.68684488  0.70802496  1
  C  C73  1  0.50000073  0.68557059  0.95599416  1
  C  C74  1  0.49999922  0.62409028  0.54820446  1
  C  C75  1  0.50000028  0.62501765  0.79090016  1
  C  C76  1  0.49999907  0.65509314  0.58549716  1
  C  C77  1  0.50000066  0.65562813  0.83216238  1
  C  C78  1  0.49999978  0.71616575  0.66449068  1
  C  C79  1  0.50000036  0.71550950  0.91676586  1
  C  C80  1  0.49999919  0.68561180  0.54436469  1
  C  C81  1  0.50000028  0.68683925  0.79232650  1
  C  C82  1  0.49999959  0.71554368  0.58363138  1
  C  C83  1  0.50000022  0.71614939  0.83590714  1
  H  H84  1  0.49999997  0.26183190  0.69687482  1
  H  H85  1  0.50000026  0.26190419  0.94478945  1
  H  H86  1  0.49999973  0.26191238  0.55531205  1
  H  H87  1  0.50000003  0.26182940  0.80325481  1
  H  H88  1  0.50000007  0.74037700  0.69321589  1
  H  H89  1  0.50000001  0.73903533  0.94863263  1
  H  H90  1  0.49999993  0.73907764  0.55179412  1
  H  H91  1  0.49999995  0.74036935  0.80722682  1
  H  H92  1  0.49999918  0.68497163  0.48141734  1
  H  H93  1  0.49999992  0.31450572  0.48409513  1
  H  H94  1  0.49999995  0.35116927  0.18112038  1
  H  H95  1  0.49999995  0.35362320  0.43313986  1
  H  H96  1  0.50000004  0.35363252  0.06693643  1
  H  H97  1  0.50000005  0.35116303  0.31891350  1
  H  H98  1  0.49999933  0.62326252  0.48518434  1
  H  H99  1  0.49999992  0.54956436  0.20019860  1
  H  H100  1  0.50000006  0.55214459  0.42762681  1
  H  H101  1  0.49999986  0.55215474  0.07258863  1
  H  H102  1  0.50000009  0.54957266  0.29994182  1
  H  H103  1  0.49999981  0.56806630  0.49097854  1
  H  H104  1  0.50000005  0.31448575  0.01600432  1
  H  H105  1  0.50000021  0.56796908  0.00917637  1
  H  H106  1  0.50000057  0.62321266  0.01510502  1
  H  H107  1  0.50000066  0.68490760  0.01893873  1
