# generated using pymatgen
data_H13C36
_symmetry_space_group_name_H-M   'P 1'
_cell_length_a   20.00000000
_cell_length_b   40.19450000
_cell_length_c   17.31079915
_cell_angle_alpha   90.00000000
_cell_angle_beta   90.00000000
_cell_angle_gamma   90.00000000
_symmetry_Int_Tables_number   1
_chemical_formula_structural   H13C36
_chemical_formula_sum   'H26 C72'
_cell_volume   13915.97833183
_cell_formula_units_Z   2
loop_
 _symmetry_equiv_pos_site_id
 _symmetry_equiv_pos_as_xyz
  1  'x, y, z'
loop_
 _atom_site_type_symbol
 _atom_site_label
 _atom_site_symmetry_multiplicity
 _atom_site_fract_x
 _atom_site_fract_y
 _atom_site_fract_z
 _atom_site_occupancy
  C  C0  1  0.50000006  0.28572283  0.66679705  1
  C  C1  1  0.49999997  0.28513507  0.91553798  1
  C  C2  1  0.50000004  0.31598861  0.71013778  1
  C  C3  1  0.49999998  0.31494839  0.21208859  1
  C  C4  1  0.49999997  0.31542820  0.95849504  1
  C  C5  1  0.50000002  0.31590670  0.46383485  1
  C  C6  1  0.50000004  0.28565031  0.58767901  1
  C  C7  1  0.49999999  0.28543378  0.83642040  1
  C  C8  1  0.50000003  0.34671698  0.66950629  1
  C  C9  1  0.50000001  0.34458607  0.16838739  1
  C  C10  1  0.49999997  0.34629557  0.91717585  1
  C  C11  1  0.50000001  0.34544422  0.42103507  1
  C  C12  1  0.50000002  0.37781214  0.71088061  1
  C  C13  1  0.50000003  0.37441612  0.21116620  1
  C  C14  1  0.49999998  0.37655288  0.96020329  1
  C  C15  1  0.50000002  0.37562999  0.46298695  1
  C  C16  1  0.50000004  0.31603793  0.54510577  1
  C  C17  1  0.49999999  0.31512283  0.03978809  1
  C  C18  1  0.50000001  0.31584154  0.79347495  1
  C  C19  1  0.49999998  0.31526100  0.29259678  1
  C  C20  1  0.50000003  0.34680503  0.58669601  1
  C  C21  1  0.49999998  0.34461877  0.08268532  1
  C  C22  1  0.50000000  0.34647569  0.83444047  1
  C  C23  1  0.50000000  0.34516084  0.33534005  1
  C  C24  1  0.50000000  0.40844948  0.66933472  1
  C  C25  1  0.50000004  0.40843109  0.91870637  1
  C  C26  1  0.50000001  0.43915495  0.71093391  1
  C  C27  1  0.50000006  0.43873627  0.95703291  1
  C  C28  1  0.50000002  0.37713250  0.54377154  1
  C  C29  1  0.49999997  0.37481658  0.04087755  1
  C  C30  1  0.50000003  0.37768384  0.79338611  1
  C  C31  1  0.50000001  0.37472498  0.29158910  1
  C  C32  1  0.49999999  0.40887492  0.58582246  1
  C  C33  1  0.50000007  0.40824188  0.83522728  1
  C  C34  1  0.49999990  0.47000366  0.67082961  1
  C  C35  1  0.50000025  0.46973290  0.91783850  1
  C  C36  1  0.49999997  0.50076673  0.71164784  1
  C  C37  1  0.50000032  0.50003105  0.95794675  1
  C  C38  1  0.49999991  0.43932802  0.54809012  1
  C  C39  1  0.50000012  0.43904459  0.79404652  1
  C  C40  1  0.49999978  0.47023417  0.58771776  1
  C  C41  1  0.50000025  0.46975650  0.83469804  1
  C  C42  1  0.49999977  0.53145870  0.67096555  1
  C  C43  1  0.50000053  0.53095360  0.91908508  1
  C  C44  1  0.49999994  0.56210187  0.71211191  1
  C  C45  1  0.50000057  0.56140894  0.95883362  1
  C  C46  1  0.49999956  0.50066567  0.54809237  1
  C  C47  1  0.50000027  0.50063159  0.79436783  1
  C  C48  1  0.49999945  0.53153002  0.58732917  1
  C  C49  1  0.50000046  0.53118091  0.83551270  1
  C  C50  1  0.49999971  0.59295509  0.67148709  1
  C  C51  1  0.50000064  0.59222555  0.91972452  1
  C  C52  1  0.49999992  0.62352778  0.71253087  1
  C  C53  1  0.50000065  0.62264609  0.95970985  1
  C  C54  1  0.49999921  0.56216886  0.54807621  1
  C  C55  1  0.50000036  0.56195271  0.79492193  1
  C  C56  1  0.49999928  0.59288557  0.58781114  1
  C  C57  1  0.50000049  0.59262918  0.83610109  1
  C  C58  1  0.49999976  0.65442040  0.67182026  1
  C  C59  1  0.50000056  0.65336854  0.92066863  1
  C  C60  1  0.49999999  0.68542847  0.71254496  1
  C  C61  1  0.50000044  0.68388591  0.96203432  1
  C  C62  1  0.49999915  0.62356749  0.54870864  1
  C  C63  1  0.50000032  0.62335680  0.79572131  1
  C  C64  1  0.49999939  0.65415010  0.58846926  1
  C  C65  1  0.50000042  0.65401818  0.83731084  1
  C  C66  1  0.50000003  0.71496614  0.66937115  1
  C  C67  1  0.50000019  0.71386559  0.92273944  1
  C  C68  1  0.49999941  0.68491620  0.54802003  1
  C  C69  1  0.50000021  0.68521832  0.79744706  1
  C  C70  1  0.49999976  0.71470980  0.58811935  1
  C  C71  1  0.50000009  0.71453339  0.84148718  1
  H  H72  1  0.50000006  0.26186755  0.69709049  1
  H  H73  1  0.49999997  0.26144634  0.94701518  1
  H  H74  1  0.50000004  0.26208472  0.55578727  1
  H  H75  1  0.50000000  0.26160760  0.80597571  1
  H  H76  1  0.50000033  0.73906574  0.69875140  1
  H  H77  1  0.50000004  0.73733873  0.95498687  1
  H  H78  1  0.49999990  0.73835241  0.55653448  1
  H  H79  1  0.49999980  0.73875612  0.81274008  1
  H  H80  1  0.49999920  0.68459674  0.48470724  1
  H  H81  1  0.49999997  0.29068546  0.18329815  1
  H  H82  1  0.50000000  0.29166469  0.43503193  1
  H  H83  1  0.50000004  0.29081538  0.06833474  1
  H  H84  1  0.49999996  0.29121902  0.32230140  1
  H  H85  1  0.49999892  0.62376048  0.48531664  1
  H  H86  1  0.49999905  0.56237155  0.48469239  1
  H  H87  1  0.49999957  0.50057400  0.48473233  1
  H  H88  1  0.49999997  0.44048482  0.48497780  1
  H  H89  1  0.50000006  0.39848035  0.18167888  1
  H  H90  1  0.50000001  0.39897175  0.43082514  1
  H  H91  1  0.49999999  0.39802095  0.07341282  1
  H  H92  1  0.50000001  0.39904009  0.31998849  1
  H  H93  1  0.49999989  0.43963743  0.02018860  1
  H  H94  1  0.50000012  0.49981947  0.02131985  1
  H  H95  1  0.50000049  0.56131450  0.02217948  1
  H  H96  1  0.50000065  0.62249777  0.02308800  1
  H  H97  1  0.50000055  0.68315819  0.02533483  1
