# generated using pymatgen
data_H2C7
_symmetry_space_group_name_H-M   'P 1'
_cell_length_a   20.00000000
_cell_length_b   40.19450000
_cell_length_c   17.23182840
_cell_angle_alpha   90.00000000
_cell_angle_beta   90.00000000
_cell_angle_gamma   90.00000000
_symmetry_Int_Tables_number   1
_chemical_formula_structural   H2C7
_chemical_formula_sum   'H24 C84'
_cell_volume   13852.49453177
_cell_formula_units_Z   12
loop_
 _symmetry_equiv_pos_site_id
 _symmetry_equiv_pos_as_xyz
  1  'x, y, z'
loop_
 _atom_site_type_symbol
 _atom_site_label
 _atom_site_symmetry_multiplicity
 _atom_site_fract_x
 _atom_site_fract_y
 _atom_site_fract_z
 _atom_site_occupancy
  C  C0  1  0.50000001  0.28587191  0.66617357  1
  C  C1  1  0.50000001  0.28527860  0.16591601  1
  C  C2  1  0.50000001  0.28542730  0.91554333  1
  C  C3  1  0.50000001  0.28551565  0.41655066  1
  C  C4  1  0.50000001  0.31582412  0.70883180  1
  C  C5  1  0.50000002  0.31524408  0.20907983  1
  C  C6  1  0.50000001  0.31528275  0.95872194  1
  C  C7  1  0.49999999  0.31552344  0.45937060  1
  C  C8  1  0.50000000  0.28575759  0.58619086  1
  C  C9  1  0.50000001  0.28520244  0.08585259  1
  C  C10  1  0.50000000  0.28564839  0.83554526  1
  C  C11  1  0.50000000  0.28543509  0.33653034  1
  C  C12  1  0.50000001  0.34648136  0.66766508  1
  C  C13  1  0.50000001  0.34579076  0.16766452  1
  C  C14  1  0.50000001  0.34598317  0.91746550  1
  C  C15  1  0.49999998  0.34610351  0.41790794  1
  C  C16  1  0.50000002  0.37741848  0.70948698  1
  C  C17  1  0.50000001  0.37680238  0.20936343  1
  C  C18  1  0.49999999  0.37681894  0.95941088  1
  C  C19  1  0.49999999  0.37699868  0.45983561  1
  C  C20  1  0.49999999  0.31568312  0.54335791  1
  C  C21  1  0.50000001  0.31514322  0.04279555  1
  C  C22  1  0.50000001  0.31566621  0.79283928  1
  C  C23  1  0.50000001  0.31533592  0.29333428  1
  C  C24  1  0.50000000  0.34637976  0.58458354  1
  C  C25  1  0.50000001  0.34571946  0.08433707  1
  C  C26  1  0.50000000  0.34625194  0.83431008  1
  C  C27  1  0.50000000  0.34596243  0.33454911  1
  C  C28  1  0.50000004  0.40796737  0.66818054  1
  C  C29  1  0.50000001  0.40733932  0.16777374  1
  C  C30  1  0.49999996  0.40748950  0.91768539  1
  C  C31  1  0.49999998  0.40771382  0.41874695  1
  C  C32  1  0.50000001  0.43890609  0.70978438  1
  C  C33  1  0.50000003  0.43722614  0.21060392  1
  C  C34  1  0.49999995  0.43798066  0.95986513  1
  C  C35  1  0.50000000  0.43741217  0.46149713  1
  C  C36  1  0.50000001  0.37728160  0.54281034  1
  C  C37  1  0.50000000  0.37653671  0.04235496  1
  C  C38  1  0.49999999  0.37728792  0.79277559  1
  C  C39  1  0.50000000  0.37691235  0.29264106  1
  C  C40  1  0.50000003  0.40795480  0.58468440  1
  C  C41  1  0.49999998  0.40724015  0.08339684  1
  C  C42  1  0.49999997  0.40773666  0.83424752  1
  C  C43  1  0.49999998  0.40755183  0.33412087  1
  C  C44  1  0.49999993  0.46972957  0.66857069  1
  C  C45  1  0.50000006  0.46967635  0.91828688  1
  C  C46  1  0.49999990  0.50043801  0.71027633  1
  C  C47  1  0.50000012  0.49991017  0.95712625  1
  C  C48  1  0.50000002  0.43853888  0.54265320  1
  C  C49  1  0.49999996  0.43687364  0.04080951  1
  C  C50  1  0.50000002  0.43878645  0.79304808  1
  C  C51  1  0.49999999  0.43733385  0.29075817  1
  C  C52  1  0.49999993  0.47023891  0.58478618  1
  C  C53  1  0.50000014  0.46947181  0.83463517  1
  C  C54  1  0.49999949  0.53140940  0.67018914  1
  C  C55  1  0.50000054  0.53093887  0.91804276  1
  C  C56  1  0.49999967  0.56211533  0.71129216  1
  C  C57  1  0.50000061  0.56112277  0.95859393  1
  C  C58  1  0.49999979  0.50071147  0.54674826  1
  C  C59  1  0.50000026  0.50029248  0.79357042  1
  C  C60  1  0.49999941  0.53164830  0.58659236  1
  C  C61  1  0.50000061  0.53104871  0.83447931  1
  C  C62  1  0.49999923  0.59298112  0.67070545  1
  C  C63  1  0.50000090  0.59210502  0.91980455  1
  C  C64  1  0.49999956  0.62359862  0.71203778  1
  C  C65  1  0.50000075  0.62247752  0.96008748  1
  C  C66  1  0.49999935  0.56212048  0.54710230  1
  C  C67  1  0.50000036  0.56192684  0.79429406  1
  C  C68  1  0.49999911  0.59293875  0.58682914  1
  C  C69  1  0.50000073  0.59255299  0.83591343  1
  C  C70  1  0.49999935  0.65445044  0.67124739  1
  C  C71  1  0.50000074  0.65326177  0.92110977  1
  C  C72  1  0.49999963  0.68549807  0.71213322  1
  C  C73  1  0.50000056  0.68377245  0.96274720  1
  C  C74  1  0.49999936  0.62358084  0.54760924  1
  C  C75  1  0.50000027  0.62338256  0.79555907  1
  C  C76  1  0.49999940  0.65417401  0.58753276  1
  C  C77  1  0.50000042  0.65399083  0.83737907  1
  C  C78  1  0.49999985  0.71500171  0.66868953  1
  C  C79  1  0.50000018  0.71377106  0.92338020  1
  C  C80  1  0.49999974  0.68490938  0.54674276  1
  C  C81  1  0.49999994  0.68527037  0.79741735  1
  C  C82  1  0.49999992  0.71469420  0.58700163  1
  C  C83  1  0.49999998  0.71453680  0.84171831  1
  H  H84  1  0.50000001  0.26199288  0.69644741  1
  H  H85  1  0.50000000  0.26125931  0.19563181  1
  H  H86  1  0.49999999  0.26138617  0.94515392  1
  H  H87  1  0.50000001  0.26160666  0.44672354  1
  H  H88  1  0.50000000  0.26177106  0.55636190  1
  H  H89  1  0.50000001  0.26120762  0.05590783  1
  H  H90  1  0.50000001  0.26172987  0.80544283  1
  H  H91  1  0.50000000  0.26143031  0.30680269  1
  H  H92  1  0.50000008  0.73915349  0.69799035  1
  H  H93  1  0.49999994  0.73723281  0.95580754  1
  H  H94  1  0.50000014  0.73834792  0.55528886  1
  H  H95  1  0.49999984  0.73883023  0.81307783  1
  H  H96  1  0.49999973  0.68452395  0.48311978  1
  H  H97  1  0.49999961  0.62379435  0.48397469  1
  H  H98  1  0.49999974  0.56226059  0.48345602  1
  H  H99  1  0.49999994  0.50175748  0.48329280  1
  H  H100  1  0.50000008  0.46119869  0.18063359  1
  H  H101  1  0.49999997  0.46085124  0.42975149  1
  H  H102  1  0.50000001  0.46035396  0.07228335  1
  H  H103  1  0.49999997  0.46139926  0.32030576  1
  H  H104  1  0.49999994  0.50084331  0.02056073  1
  H  H105  1  0.50000015  0.56089067  0.02224478  1
  H  H106  1  0.50000041  0.62228075  0.02372263  1
  H  H107  1  0.50000053  0.68299378  0.02633750  1
