# generated using pymatgen
data_H11C46
_symmetry_space_group_name_H-M   'P 1'
_cell_length_a   20.00000000
_cell_length_b   40.19450000
_cell_length_c   17.31516139
_cell_angle_alpha   90.00000000
_cell_angle_beta   90.00000000
_cell_angle_gamma   90.00000000
_symmetry_Int_Tables_number   1
_chemical_formula_structural   H11C46
_chemical_formula_sum   'H22 C92'
_cell_volume   13919.48509174
_cell_formula_units_Z   2
loop_
 _symmetry_equiv_pos_site_id
 _symmetry_equiv_pos_as_xyz
  1  'x, y, z'
loop_
 _atom_site_type_symbol
 _atom_site_label
 _atom_site_symmetry_multiplicity
 _atom_site_fract_x
 _atom_site_fract_y
 _atom_site_fract_z
 _atom_site_occupancy
  C  C0  1  0.50000006  0.28372176  0.67178493  1
  C  C1  1  0.49999994  0.28256434  0.90890836  1
  C  C2  1  0.50000002  0.31463123  0.70925722  1
  C  C3  1  0.49999999  0.31200202  0.95006716  1
  C  C4  1  0.50000006  0.28263476  0.59271224  1
  C  C5  1  0.49999993  0.28367940  0.82983287  1
  C  C6  1  0.50000001  0.34526095  0.66754584  1
  C  C7  1  0.50000000  0.35000583  0.17076185  1
  C  C8  1  0.49999999  0.34431814  0.91738534  1
  C  C9  1  0.49999999  0.34942929  0.40985983  1
  C  C10  1  0.50000000  0.37626310  0.70957587  1
  C  C11  1  0.50000000  0.38026547  0.21036224  1
  C  C12  1  0.50000000  0.37586580  0.96065626  1
  C  C13  1  0.49999999  0.37781682  0.45826213  1
  C  C14  1  0.50000003  0.31210748  0.55165477  1
  C  C15  1  0.49999998  0.31460183  0.79243580  1
  C  C16  1  0.50000001  0.34442714  0.58445207  1
  C  C17  1  0.50000000  0.34923824  0.09254974  1
  C  C18  1  0.49999999  0.34517916  0.83430781  1
  C  C19  1  0.49999999  0.35008804  0.33163870  1
  C  C20  1  0.50000000  0.40697570  0.66771865  1
  C  C21  1  0.50000000  0.40997532  0.16723414  1
  C  C22  1  0.50000000  0.40660925  0.91848360  1
  C  C23  1  0.49999999  0.40902329  0.41809148  1
  C  C24  1  0.50000000  0.43778455  0.70952858  1
  C  C25  1  0.49999999  0.44044847  0.20967920  1
  C  C26  1  0.50000000  0.43805968  0.95921345  1
  C  C27  1  0.50000000  0.43930897  0.46028216  1
  C  C28  1  0.50000000  0.37603509  0.54152307  1
  C  C29  1  0.50000000  0.37760092  0.04398368  1
  C  C30  1  0.50000000  0.37620576  0.79249314  1
  C  C31  1  0.49999999  0.38030904  0.29192825  1
  C  C32  1  0.50000000  0.40676374  0.58382009  1
  C  C33  1  0.50000000  0.40885236  0.08415859  1
  C  C34  1  0.50000000  0.40686218  0.83457510  1
  C  C35  1  0.49999999  0.41005853  0.33504990  1
  C  C36  1  0.50000000  0.46882136  0.66801270  1
  C  C37  1  0.49999999  0.47065313  0.16738163  1
  C  C38  1  0.49999998  0.46876849  0.91718658  1
  C  C39  1  0.50000001  0.47011023  0.41827538  1
  C  C40  1  0.50000000  0.49966832  0.70970240  1
  C  C41  1  0.50000000  0.50143311  0.20945443  1
  C  C42  1  0.49999999  0.49976122  0.95886837  1
  C  C43  1  0.50000001  0.50051564  0.46060858  1
  C  C44  1  0.50000000  0.43822521  0.54312063  1
  C  C45  1  0.50000000  0.43911869  0.04204627  1
  C  C46  1  0.50000000  0.43771720  0.79288809  1
  C  C47  1  0.50000000  0.44052025  0.29285569  1
  C  C48  1  0.50000001  0.46893014  0.58526348  1
  C  C49  1  0.49999999  0.46987996  0.08424093  1
  C  C50  1  0.49999999  0.46874242  0.83442417  1
  C  C51  1  0.50000000  0.47076950  0.33513879  1
  C  C52  1  0.49999999  0.53050688  0.66869653  1
  C  C53  1  0.50000000  0.53187374  0.16761481  1
  C  C54  1  0.50000003  0.53033189  0.91687657  1
  C  C55  1  0.50000001  0.53147120  0.41949907  1
  C  C56  1  0.50000000  0.56149047  0.71041107  1
  C  C57  1  0.50000001  0.56177459  0.21131126  1
  C  C58  1  0.50000006  0.56099730  0.95889519  1
  C  C59  1  0.49999999  0.56085061  0.46338901  1
  C  C60  1  0.50000001  0.49999988  0.54378917  1
  C  C61  1  0.49999998  0.50025415  0.04207239  1
  C  C62  1  0.50000000  0.49959934  0.79281288  1
  C  C63  1  0.50000001  0.50151945  0.29306693  1
  C  C64  1  0.49999998  0.53059130  0.58588830  1
  C  C65  1  0.49999999  0.53117047  0.08333587  1
  C  C66  1  0.50000003  0.53035593  0.83405791  1
  C  C67  1  0.50000001  0.53200521  0.33515661  1
  C  C68  1  0.49999996  0.59253402  0.66939994  1
  C  C69  1  0.50000011  0.59256922  0.91710976  1
  C  C70  1  0.49999999  0.62322514  0.71052650  1
  C  C71  1  0.50000016  0.62284278  0.95563478  1
  C  C72  1  0.49999995  0.56134085  0.54404265  1
  C  C73  1  0.50000003  0.56048877  0.03947141  1
  C  C74  1  0.50000005  0.56142846  0.79271915  1
  C  C75  1  0.50000001  0.56184810  0.29130256  1
  C  C76  1  0.49999990  0.59290905  0.58622131  1
  C  C77  1  0.50000009  0.59236969  0.83402265  1
  C  C78  1  0.49999992  0.65433932  0.67038870  1
  C  C79  1  0.50000019  0.65373672  0.91688862  1
  C  C80  1  0.50000001  0.68547209  0.71049786  1
  C  C81  1  0.50000022  0.68401314  0.95871261  1
  C  C82  1  0.49999978  0.62336156  0.54833384  1
  C  C83  1  0.50000009  0.62314749  0.79341225  1
  C  C84  1  0.49999979  0.65418756  0.58769473  1
  C  C85  1  0.50000014  0.65411832  0.83423492  1
  C  C86  1  0.50000001  0.71499436  0.66739255  1
  C  C87  1  0.50000015  0.71413466  0.91974194  1
  C  C88  1  0.49999969  0.68468808  0.54670129  1
  C  C89  1  0.50000009  0.68538203  0.79482715  1
  C  C90  1  0.49999984  0.71465951  0.58636987  1
  C  C91  1  0.50000006  0.71473964  0.83867779  1
  H  H92  1  0.50000009  0.26031102  0.70325660  1
  H  H93  1  0.49999992  0.25889099  0.94024251  1
  H  H94  1  0.50000008  0.25902215  0.56107676  1
  H  H95  1  0.49999989  0.26030932  0.79832892  1
  H  H96  1  0.50000011  0.73903934  0.69700900  1
  H  H97  1  0.50000014  0.73760595  0.95199768  1
  H  H98  1  0.49999981  0.73827299  0.55469706  1
  H  H99  1  0.50000000  0.73894523  0.80977877  1
  H  H100  1  0.49999954  0.68425239  0.48338368  1
  H  H101  1  0.50000001  0.32619067  0.20072180  1
  H  H102  1  0.49999998  0.32474114  0.43141957  1
  H  H103  1  0.50000003  0.30673064  0.49133540  1
  H  H104  1  0.49999998  0.32446858  0.07127497  1
  H  H105  1  0.49999998  0.32622530  0.30186623  1
  H  H106  1  0.49999969  0.62446886  0.48524381  1
  H  H107  1  0.50000002  0.58587614  0.18192629  1
  H  H108  1  0.50000000  0.58454928  0.43276596  1
  H  H109  1  0.50000003  0.58414489  0.07014329  1
  H  H110  1  0.50000002  0.58597772  0.32060225  1
  H  H111  1  0.50000002  0.30679739  0.01046812  1
  H  H112  1  0.50000016  0.62393198  0.01871691  1
  H  H113  1  0.50000029  0.68318903  0.02203767  1
