# generated using pymatgen
data_H11C46
_symmetry_space_group_name_H-M   'P 1'
_cell_length_a   20.00000000
_cell_length_b   40.19450000
_cell_length_c   17.19549892
_cell_angle_alpha   90.00000000
_cell_angle_beta   90.00000000
_cell_angle_gamma   90.00000000
_symmetry_Int_Tables_number   1
_chemical_formula_structural   H11C46
_chemical_formula_sum   'H22 C92'
_cell_volume   13823.28962690
_cell_formula_units_Z   2
loop_
 _symmetry_equiv_pos_site_id
 _symmetry_equiv_pos_as_xyz
  1  'x, y, z'
loop_
 _atom_site_type_symbol
 _atom_site_label
 _atom_site_symmetry_multiplicity
 _atom_site_fract_x
 _atom_site_fract_y
 _atom_site_fract_z
 _atom_site_occupancy
  C  C0  1  0.50000000  0.28565584  0.66547443  1
  C  C1  1  0.50000000  0.28515523  0.16568897  1
  C  C2  1  0.49999999  0.28528618  0.91516795  1
  C  C3  1  0.50000000  0.28546163  0.41597763  1
  C  C4  1  0.50000001  0.31563028  0.70868223  1
  C  C5  1  0.50000000  0.31518118  0.20889116  1
  C  C6  1  0.49999999  0.31524810  0.95854973  1
  C  C7  1  0.49999999  0.31552101  0.45885065  1
  C  C8  1  0.49999999  0.28563022  0.58555819  1
  C  C9  1  0.50000000  0.28516123  0.08560260  1
  C  C10  1  0.50000000  0.28544208  0.83518019  1
  C  C11  1  0.50000000  0.28542476  0.33597809  1
  C  C12  1  0.50000001  0.34636961  0.66742130  1
  C  C13  1  0.50000000  0.34587900  0.16734903  1
  C  C14  1  0.50000000  0.34599184  0.91717896  1
  C  C15  1  0.49999999  0.34617467  0.41739857  1
  C  C16  1  0.50000002  0.37719154  0.70927440  1
  C  C17  1  0.49999999  0.37678057  0.20906857  1
  C  C18  1  0.50000000  0.37678518  0.95904271  1
  C  C19  1  0.50000000  0.37697930  0.45932860  1
  C  C20  1  0.49999999  0.31563191  0.54251916  1
  C  C21  1  0.49999999  0.31517803  0.04243214  1
  C  C22  1  0.50000001  0.31550980  0.79230005  1
  C  C23  1  0.50000000  0.31537040  0.29270568  1
  C  C24  1  0.49999999  0.34631757  0.58407243  1
  C  C25  1  0.49999999  0.34586459  0.08395615  1
  C  C26  1  0.50000001  0.34617652  0.83382188  1
  C  C27  1  0.49999999  0.34612537  0.33405401  1
  C  C28  1  0.50000001  0.40792131  0.66751890  1
  C  C29  1  0.50000000  0.40739506  0.16734290  1
  C  C30  1  0.50000001  0.40751760  0.91729162  1
  C  C31  1  0.50000001  0.40761085  0.41764782  1
  C  C32  1  0.50000001  0.43878213  0.70913362  1
  C  C33  1  0.50000000  0.43824308  0.20919058  1
  C  C34  1  0.50000001  0.43826527  0.95900669  1
  C  C35  1  0.50000001  0.43830188  0.45970989  1
  C  C36  1  0.49999998  0.37711635  0.54237618  1
  C  C37  1  0.50000000  0.37668609  0.04211481  1
  C  C38  1  0.50000001  0.37708889  0.79226789  1
  C  C39  1  0.49999999  0.37693327  0.29229248  1
  C  C40  1  0.50000000  0.40779348  0.58441799  1
  C  C41  1  0.50000001  0.40731347  0.08404103  1
  C  C42  1  0.50000001  0.40777205  0.83415389  1
  C  C43  1  0.50000000  0.40754152  0.33435463  1
  C  C44  1  0.50000001  0.46950783  0.66784873  1
  C  C45  1  0.50000001  0.46887721  0.16766868  1
  C  C46  1  0.50000000  0.46902927  0.91727314  1
  C  C47  1  0.50000000  0.46909238  0.41853748  1
  C  C48  1  0.50000000  0.50057266  0.70959826  1
  C  C49  1  0.50000002  0.49881968  0.21086967  1
  C  C50  1  0.49999999  0.49955214  0.95986870  1
  C  C51  1  0.50000001  0.49887141  0.46135513  1
  C  C52  1  0.50000001  0.43859028  0.54288975  1
  C  C53  1  0.50000001  0.43800843  0.04223516  1
  C  C54  1  0.50000000  0.43867868  0.79261963  1
  C  C55  1  0.50000000  0.43837842  0.29271609  1
  C  C56  1  0.50000001  0.46939367  0.58468902  1
  C  C57  1  0.50000001  0.46877601  0.08354922  1
  C  C58  1  0.49999999  0.46930462  0.83414286  1
  C  C59  1  0.50000000  0.46907791  0.33438282  1
  C  C60  1  0.49999991  0.53138339  0.66850156  1
  C  C61  1  0.50000008  0.53126289  0.91835358  1
  C  C62  1  0.49999991  0.56206333  0.71030098  1
  C  C63  1  0.50000017  0.56143924  0.95729978  1
  C  C64  1  0.49999998  0.50007142  0.54237462  1
  C  C65  1  0.49999999  0.49845716  0.04078300  1
  C  C66  1  0.50000002  0.50044777  0.79277439  1
  C  C67  1  0.50000000  0.49893977  0.29100456  1
  C  C68  1  0.49999989  0.53179637  0.58455724  1
  C  C69  1  0.50000014  0.53112109  0.83449929  1
  C  C70  1  0.49999955  0.59317216  0.67026059  1
  C  C71  1  0.50000055  0.59248131  0.91831596  1
  C  C72  1  0.49999969  0.62387455  0.71129766  1
  C  C73  1  0.50000064  0.62258114  0.95920457  1
  C  C74  1  0.49999975  0.56228060  0.54665077  1
  C  C75  1  0.50000025  0.56192796  0.79355755  1
  C  C76  1  0.49999947  0.59324057  0.58660890  1
  C  C77  1  0.50000057  0.59279029  0.83470230  1
  C  C78  1  0.49999943  0.65472987  0.67045090  1
  C  C79  1  0.50000078  0.65349726  0.92058808  1
  C  C80  1  0.49999972  0.68579731  0.71148849  1
  C  C81  1  0.50000060  0.68388424  0.96261053  1
  C  C82  1  0.49999943  0.62369949  0.54703040  1
  C  C83  1  0.50000029  0.62368281  0.79475924  1
  C  C84  1  0.49999935  0.65443698  0.58668482  1
  C  C85  1  0.50000051  0.65426538  0.83681948  1
  C  C86  1  0.49999989  0.71528404  0.66797502  1
  C  C87  1  0.50000024  0.71394020  0.92334019  1
  C  C88  1  0.49999955  0.68513996  0.54580125  1
  C  C89  1  0.50000005  0.68557193  0.79690955  1
  C  C90  1  0.49999982  0.71494255  0.58614763  1
  C  C91  1  0.50000004  0.71478215  0.84150775  1
  H  H92  1  0.49999999  0.26173937  0.69556213  1
  H  H93  1  0.50000001  0.26116648  0.19563941  1
  H  H94  1  0.49999999  0.26128335  0.94497550  1
  H  H95  1  0.50000000  0.26149426  0.44595798  1
  H  H96  1  0.49999999  0.26166692  0.55557761  1
  H  H97  1  0.50000001  0.26121326  0.05554091  1
  H  H98  1  0.49999999  0.26154391  0.80491902  1
  H  H99  1  0.50000000  0.26147747  0.30592580  1
  H  H100  1  0.50000012  0.73944497  0.69730812  1
  H  H101  1  0.49999998  0.73737074  0.95597818  1
  H  H102  1  0.50000004  0.73858901  0.55437266  1
  H  H103  1  0.49999987  0.73910853  0.81294533  1
  H  H104  1  0.49999946  0.68477342  0.48204596  1
  H  H105  1  0.49999956  0.62384474  0.48326258  1
  H  H106  1  0.49999981  0.56347497  0.48306879  1
  H  H107  1  0.50000006  0.52276651  0.18085819  1
  H  H108  1  0.50000000  0.52227614  0.42946335  1
  H  H109  1  0.49999998  0.52191613  0.07239472  1
  H  H110  1  0.49999997  0.52295145  0.32079770  1
  H  H111  1  0.50000002  0.56242167  0.02083048  1
  H  H112  1  0.50000030  0.62223821  0.02300123  1
  H  H113  1  0.50000051  0.68299141  0.02633818  1
