# generated using pymatgen
data_H7C16
_symmetry_space_group_name_H-M   'P 1'
_cell_length_a   20.00000000
_cell_length_b   40.19450000
_cell_length_c   18.15788363
_cell_angle_alpha   90.00000000
_cell_angle_beta   90.00000000
_cell_angle_gamma   90.00000000
_symmetry_Int_Tables_number   1
_chemical_formula_structural   H7C16
_chemical_formula_sum   'H28 C64'
_cell_volume   14596.94106864
_cell_formula_units_Z   4
loop_
 _symmetry_equiv_pos_site_id
 _symmetry_equiv_pos_as_xyz
  1  'x, y, z'
loop_
 _atom_site_type_symbol
 _atom_site_label
 _atom_site_symmetry_multiplicity
 _atom_site_fract_x
 _atom_site_fract_y
 _atom_site_fract_z
 _atom_site_occupancy
  C  C0  1  0.50000036  0.28523430  0.67062632  1
  C  C1  1  0.50000000  0.28432428  0.90710983  1
  C  C2  1  0.50000019  0.31578362  0.71259248  1
  C  C3  1  0.49999965  0.32341876  0.21859191  1
  C  C4  1  0.50000046  0.31431558  0.95119036  1
  C  C5  1  0.49999938  0.31256273  0.47762280  1
  C  C6  1  0.50000028  0.28495324  0.59585086  1
  C  C7  1  0.50000001  0.28492765  0.83231381  1
  C  C8  1  0.50000017  0.34649007  0.67316237  1
  C  C9  1  0.50000033  0.34636409  0.91092620  1
  C  C10  1  0.50000021  0.37716789  0.71283395  1
  C  C11  1  0.50000021  0.37654454  0.94761999  1
  C  C12  1  0.49999988  0.31512846  0.55246069  1
  C  C13  1  0.50000082  0.31125821  0.02599048  1
  C  C14  1  0.50000023  0.31563841  0.79098830  1
  C  C15  1  0.50000068  0.32334481  0.29229149  1
  C  C16  1  0.50000009  0.34699167  0.59339736  1
  C  C17  1  0.50000027  0.34616831  0.83112106  1
  C  C18  1  0.50000005  0.40799959  0.67452580  1
  C  C19  1  0.50000037  0.40767057  0.91037158  1
  C  C20  1  0.50000012  0.43874013  0.71357753  1
  C  C21  1  0.50000039  0.43799057  0.94857207  1
  C  C22  1  0.50000021  0.37733105  0.55735415  1
  C  C23  1  0.50000023  0.37701864  0.79214595  1
  C  C24  1  0.49999998  0.40826937  0.59524583  1
  C  C25  1  0.50000029  0.40769599  0.83106961  1
  C  C26  1  0.49999982  0.46938735  0.67486229  1
  C  C27  1  0.50000066  0.46892286  0.91149648  1
  C  C28  1  0.49999987  0.50009699  0.71412516  1
  C  C29  1  0.50000119  0.49947432  0.94936986  1
  C  C30  1  0.49999967  0.43871935  0.55756411  1
  C  C31  1  0.50000017  0.43858545  0.79258238  1
  C  C32  1  0.49999931  0.46950527  0.59521810  1
  C  C33  1  0.50000038  0.46907921  0.83185725  1
  C  C34  1  0.49999923  0.53080587  0.67540498  1
  C  C35  1  0.50000159  0.53029809  0.91222147  1
  C  C36  1  0.49999951  0.56138980  0.71470352  1
  C  C37  1  0.50000245  0.56084780  0.95006464  1
  C  C38  1  0.49999841  0.50017582  0.55782267  1
  C  C39  1  0.50000031  0.49993266  0.79315530  1
  C  C40  1  0.49999810  0.53087349  0.59557773  1
  C  C41  1  0.50000088  0.53050115  0.83241652  1
  C  C42  1  0.49999855  0.59228545  0.67603017  1
  C  C43  1  0.50000254  0.59163770  0.91266306  1
  C  C44  1  0.49999928  0.62284824  0.71507462  1
  C  C45  1  0.50000345  0.62212584  0.95062198  1
  C  C46  1  0.49999677  0.56156617  0.55830188  1
  C  C47  1  0.50000056  0.56122989  0.79368104  1
  C  C48  1  0.49999689  0.59224016  0.59625303  1
  C  C49  1  0.50000127  0.59198947  0.83289696  1
  C  C50  1  0.49999846  0.65374510  0.67614137  1
  C  C51  1  0.50000305  0.65286599  0.91340389  1
  C  C52  1  0.49999933  0.68471043  0.71492261  1
  C  C53  1  0.50000403  0.68347622  0.95257428  1
  C  C54  1  0.49999579  0.62289575  0.55892882  1
  C  C55  1  0.50000075  0.62268909  0.79441781  1
  C  C56  1  0.49999654  0.65350613  0.59668324  1
  C  C57  1  0.50000151  0.65343327  0.83394308  1
  C  C58  1  0.49999854  0.71428557  0.67384372  1
  C  C59  1  0.50000333  0.71341268  0.91487431  1
  C  C60  1  0.49999557  0.68428038  0.55810202  1
  C  C61  1  0.50000085  0.68456600  0.79577825  1
  C  C62  1  0.49999666  0.71404912  0.59642806  1
  C  C63  1  0.50000174  0.71397570  0.83744107  1
  H  H64  1  0.50000061  0.26135672  0.69938138  1
  H  H65  1  0.49999971  0.26046885  0.93647314  1
  H  H66  1  0.50000045  0.26125525  0.56588953  1
  H  H67  1  0.49999969  0.26118125  0.80307197  1
  H  H68  1  0.49999925  0.73832698  0.70199807  1
  H  H69  1  0.50000406  0.73697254  0.94532438  1
  H  H70  1  0.49999615  0.73774781  0.56654455  1
  H  H71  1  0.50000120  0.73817174  0.80988241  1
  H  H72  1  0.49999384  0.68402324  0.49772111  1
  H  H73  1  0.49999929  0.30033818  0.18645831  1
  H  H74  1  0.49999935  0.28793352  0.45171773  1
  H  H75  1  0.50000070  0.28637464  0.05067990  1
  H  H76  1  0.50000121  0.30023977  0.32430420  1
  H  H77  1  0.49999437  0.62303072  0.49853258  1
  H  H78  1  0.49999541  0.56165755  0.49787906  1
  H  H79  1  0.49999731  0.50022362  0.49742048  1
  H  H80  1  0.49999922  0.43873806  0.49713918  1
  H  H81  1  0.50000031  0.37815614  0.49706348  1
  H  H82  1  0.49999912  0.34674695  0.18723714  1
  H  H83  1  0.49999894  0.33405584  0.44097633  1
  H  H84  1  0.50000127  0.33240842  0.06367204  1
  H  H85  1  0.50000104  0.34659264  0.32393812  1
  H  H86  1  0.50000012  0.37702073  0.00797262  1
  H  H87  1  0.50000067  0.43773468  0.00898484  1
  H  H88  1  0.50000181  0.49938607  0.00973278  1
  H  H89  1  0.50000320  0.56081578  0.01048437  1
  H  H90  1  0.50000452  0.62203409  0.01104334  1
  H  H91  1  0.50000527  0.68291609  0.01295122  1
