# generated using pymatgen
data_H2C7
_symmetry_space_group_name_H-M   'P 1'
_cell_length_a   20.00000000
_cell_length_b   40.19450000
_cell_length_c   17.41255615
_cell_angle_alpha   90.00000000
_cell_angle_beta   90.00000000
_cell_angle_gamma   90.00000000
_symmetry_Int_Tables_number   1
_chemical_formula_structural   H2C7
_chemical_formula_sum   'H24 C84'
_cell_volume   13997.77976532
_cell_formula_units_Z   12
loop_
 _symmetry_equiv_pos_site_id
 _symmetry_equiv_pos_as_xyz
  1  'x, y, z'
loop_
 _atom_site_type_symbol
 _atom_site_label
 _atom_site_symmetry_multiplicity
 _atom_site_fract_x
 _atom_site_fract_y
 _atom_site_fract_z
 _atom_site_occupancy
  C  C0  1  0.49999998  0.28347666  0.66683482  1
  C  C1  1  0.50000000  0.28407163  0.91732081  1
  C  C2  1  0.50000005  0.31280553  0.71026656  1
  C  C3  1  0.49999997  0.31434100  0.95491788  1
  C  C4  1  0.50000004  0.28401804  0.58626311  1
  C  C5  1  0.50000005  0.28351356  0.83675724  1
  C  C6  1  0.50000002  0.34431292  0.67242437  1
  C  C7  1  0.50000003  0.34437543  0.91204405  1
  C  C8  1  0.49999999  0.37592812  0.71050078  1
  C  C9  1  0.50000007  0.37485275  0.95047658  1
  C  C10  1  0.50000002  0.31427820  0.54859340  1
  C  C11  1  0.50000008  0.31282083  0.79324476  1
  C  C12  1  0.50000000  0.34434498  0.59137558  1
  C  C13  1  0.50000006  0.34434052  0.83098161  1
  C  C14  1  0.49999999  0.40676157  0.66915577  1
  C  C15  1  0.49999997  0.41252478  0.17188730  1
  C  C16  1  0.50000000  0.40644232  0.91749607  1
  C  C17  1  0.49999995  0.41143845  0.40994810  1
  C  C18  1  0.49999999  0.43771171  0.71018225  1
  C  C19  1  0.50000001  0.44278186  0.21095082  1
  C  C20  1  0.49999997  0.43779701  0.96116915  1
  C  C21  1  0.50000000  0.43963856  0.45865283  1
  C  C22  1  0.50000003  0.37483027  0.55287119  1
  C  C23  1  0.50000001  0.37592320  0.79278546  1
  C  C24  1  0.50000001  0.40649939  0.58576504  1
  C  C25  1  0.49999991  0.41126983  0.09386353  1
  C  C26  1  0.49999998  0.40673881  0.83411536  1
  C  C27  1  0.49999997  0.41260368  0.33194769  1
  C  C28  1  0.50000004  0.46839110  0.66820295  1
  C  C29  1  0.50000000  0.47228046  0.16776821  1
  C  C30  1  0.49999995  0.46822046  0.91907769  1
  C  C31  1  0.50000004  0.47091137  0.41868247  1
  C  C32  1  0.50000001  0.49915144  0.71016118  1
  C  C33  1  0.49999999  0.50307017  0.20997492  1
  C  C34  1  0.49999995  0.49972250  0.95974326  1
  C  C35  1  0.50000007  0.50111093  0.46122523  1
  C  C36  1  0.50000003  0.43794978  0.54233938  1
  C  C37  1  0.49999996  0.43942558  0.04494796  1
  C  C38  1  0.49999997  0.43768223  0.79312905  1
  C  C39  1  0.50000001  0.44283183  0.29277198  1
  C  C40  1  0.50000006  0.46835468  0.58444265  1
  C  C41  1  0.49999998  0.47071755  0.08489474  1
  C  C42  1  0.49999996  0.46830279  0.83526505  1
  C  C43  1  0.50000002  0.47238049  0.33581108  1
  C  C44  1  0.49999997  0.53011773  0.66939130  1
  C  C45  1  0.49999996  0.53328115  0.16790879  1
  C  C46  1  0.50000002  0.53009230  0.91716364  1
  C  C47  1  0.50000006  0.53218933  0.42023953  1
  C  C48  1  0.49999994  0.56087084  0.71071461  1
  C  C49  1  0.49999999  0.56307410  0.21160207  1
  C  C50  1  0.50000011  0.56078669  0.95838898  1
  C  C51  1  0.49999999  0.56106546  0.46467940  1
  C  C52  1  0.50000006  0.49990252  0.54382993  1
  C  C53  1  0.49999995  0.50090460  0.04233144  1
  C  C54  1  0.49999999  0.49908720  0.79341627  1
  C  C55  1  0.50000003  0.50311970  0.29346228  1
  C  C56  1  0.49999997  0.53027348  0.58648328  1
  C  C57  1  0.49999995  0.53196139  0.08334418  1
  C  C58  1  0.50000003  0.53001203  0.83424575  1
  C  C59  1  0.50000005  0.53338053  0.33550815  1
  C  C60  1  0.49999983  0.59201744  0.67002280  1
  C  C61  1  0.50000022  0.59221187  0.91651402  1
  C  C62  1  0.49999981  0.62268900  0.71081275  1
  C  C63  1  0.50000035  0.62257343  0.95473405  1
  C  C64  1  0.49999990  0.56101887  0.54533959  1
  C  C65  1  0.50000002  0.56083060  0.03896187  1
  C  C66  1  0.50000004  0.56082761  0.79317487  1
  C  C67  1  0.50000003  0.56311602  0.29160785  1
  C  C68  1  0.49999980  0.59243623  0.58738125  1
  C  C69  1  0.50000011  0.59191454  0.83394623  1
  C  C70  1  0.49999979  0.65373569  0.67076087  1
  C  C71  1  0.50000030  0.65334723  0.91599013  1
  C  C72  1  0.49999980  0.68491068  0.71042312  1
  C  C73  1  0.50000047  0.68373188  0.95731036  1
  C  C74  1  0.49999978  0.62287492  0.54950085  1
  C  C75  1  0.49999996  0.62263015  0.79337687  1
  C  C76  1  0.49999988  0.65360521  0.58850232  1
  C  C77  1  0.50000003  0.65360098  0.83372218  1
  C  C78  1  0.49999991  0.71436653  0.66738017  1
  C  C79  1  0.50000023  0.71373296  0.91828717  1
  C  C80  1  0.49999980  0.68407542  0.54747053  1
  C  C81  1  0.49999990  0.68483500  0.79428796  1
  C  C82  1  0.49999987  0.71403749  0.58670583  1
  C  C83  1  0.49999998  0.71420070  0.83763827  1
  H  H84  1  0.49999987  0.25936037  0.69592634  1
  H  H85  1  0.49999994  0.26066009  0.94958482  1
  H  H86  1  0.50000012  0.26060796  0.55400601  1
  H  H87  1  0.50000003  0.25937840  0.80777972  1
  H  H88  1  0.50000008  0.73846372  0.69658041  1
  H  H89  1  0.50000007  0.73728474  0.94999167  1
  H  H90  1  0.49999991  0.73763762  0.55512961  1
  H  H91  1  0.49999985  0.73834978  0.80871763  1
  H  H92  1  0.49999946  0.68347224  0.48450641  1
  H  H93  1  0.50000006  0.31552448  0.48567294  1
  H  H94  1  0.49999963  0.62411493  0.48681883  1
  H  H95  1  0.49999999  0.38886828  0.20233525  1
  H  H96  1  0.49999985  0.38637587  0.42966895  1
  H  H97  1  0.50000008  0.37031731  0.49262153  1
  H  H98  1  0.49999985  0.38614952  0.07444131  1
  H  H99  1  0.49999990  0.38889606  0.30171857  1
  H  H100  1  0.49999998  0.58728551  0.18274008  1
  H  H101  1  0.49999999  0.58490886  0.43490287  1
  H  H102  1  0.50000002  0.58464417  0.06882948  1
  H  H103  1  0.50000006  0.58734406  0.32036496  1
  H  H104  1  0.49999984  0.31557332  0.01783945  1
  H  H105  1  0.50000021  0.37048969  0.01075684  1
  H  H106  1  0.50000043  0.62364247  0.01744965  1
  H  H107  1  0.50000071  0.68304058  0.02026459  1
