# generated using pymatgen
data_HC4
_symmetry_space_group_name_H-M   'P 1'
_cell_length_a   20.00000000
_cell_length_b   40.19450000
_cell_length_c   17.18231966
_cell_angle_alpha   90.00000000
_cell_angle_beta   90.00000000
_cell_angle_gamma   90.00000000
_symmetry_Int_Tables_number   1
_chemical_formula_structural   HC4
_chemical_formula_sum   'H22 C88'
_cell_volume   13812.69495531
_cell_formula_units_Z   22
loop_
 _symmetry_equiv_pos_site_id
 _symmetry_equiv_pos_as_xyz
  1  'x, y, z'
loop_
 _atom_site_type_symbol
 _atom_site_label
 _atom_site_symmetry_multiplicity
 _atom_site_fract_x
 _atom_site_fract_y
 _atom_site_fract_z
 _atom_site_occupancy
  C  C0  1  0.50000000  0.28516926  0.66499493  1
  C  C1  1  0.50000000  0.28505711  0.91612332  1
  C  C2  1  0.50000001  0.31532805  0.70922163  1
  C  C3  1  0.50000000  0.31577470  0.21121733  1
  C  C4  1  0.50000000  0.31555158  0.95883556  1
  C  C5  1  0.50000001  0.31621940  0.46163689  1
  C  C6  1  0.49999999  0.28539972  0.58536989  1
  C  C7  1  0.50000001  0.28497467  0.83640961  1
  C  C8  1  0.50000001  0.34632727  0.66824162  1
  C  C9  1  0.50000000  0.34569243  0.16790751  1
  C  C10  1  0.50000000  0.34628448  0.91681002  1
  C  C11  1  0.49999999  0.34587688  0.41883638  1
  C  C12  1  0.50000000  0.37715232  0.70971141  1
  C  C13  1  0.50000000  0.37638536  0.20929631  1
  C  C14  1  0.50000001  0.37676934  0.95903406  1
  C  C15  1  0.49999998  0.37683596  0.46003554  1
  C  C16  1  0.50000001  0.31592774  0.54297619  1
  C  C17  1  0.50000000  0.31588422  0.04033130  1
  C  C18  1  0.50000001  0.31521678  0.79239836  1
  C  C19  1  0.49999999  0.31582839  0.29140463  1
  C  C20  1  0.50000001  0.34661789  0.58513655  1
  C  C21  1  0.49999999  0.34553155  0.08348556  1
  C  C22  1  0.50000000  0.34613069  0.83367861  1
  C  C23  1  0.50000000  0.34583727  0.33449509  1
  C  C24  1  0.50000001  0.40798852  0.66787397  1
  C  C25  1  0.50000001  0.40725562  0.16743771  1
  C  C26  1  0.50000002  0.40763582  0.91730643  1
  C  C27  1  0.49999997  0.40750691  0.41797787  1
  C  C28  1  0.50000001  0.43888841  0.70948613  1
  C  C29  1  0.50000002  0.43806531  0.20934248  1
  C  C30  1  0.50000000  0.43830789  0.95922955  1
  C  C31  1  0.49999999  0.43827145  0.45996283  1
  C  C32  1  0.49999998  0.37713631  0.54321270  1
  C  C33  1  0.50000000  0.37647260  0.04227756  1
  C  C34  1  0.50000001  0.37704654  0.79251095  1
  C  C35  1  0.49999999  0.37644554  0.29297511  1
  C  C36  1  0.49999999  0.40796034  0.58509479  1
  C  C37  1  0.50000002  0.40718308  0.08440356  1
  C  C38  1  0.50000001  0.40781260  0.83454289  1
  C  C39  1  0.50000000  0.40734173  0.33490338  1
  C  C40  1  0.50000001  0.46953491  0.66810472  1
  C  C41  1  0.50000003  0.46872752  0.16794798  1
  C  C42  1  0.49999998  0.46905839  0.91759492  1
  C  C43  1  0.49999998  0.46897105  0.41871836  1
  C  C44  1  0.50000000  0.50061328  0.70991906  1
  C  C45  1  0.50000004  0.49875606  0.21120439  1
  C  C46  1  0.49999996  0.49959195  0.96027861  1
  C  C47  1  0.50000000  0.49887496  0.46144960  1
  C  C48  1  0.49999999  0.43866526  0.54323276  1
  C  C49  1  0.50000001  0.43792660  0.04252725  1
  C  C50  1  0.50000000  0.43876505  0.79300981  1
  C  C51  1  0.50000001  0.43813144  0.29310193  1
  C  C52  1  0.50000000  0.46944204  0.58490858  1
  C  C53  1  0.50000002  0.46862845  0.08387276  1
  C  C54  1  0.49999998  0.46934388  0.83447881  1
  C  C55  1  0.49999999  0.46885101  0.33463453  1
  C  C56  1  0.49999993  0.53141966  0.66864399  1
  C  C57  1  0.50000002  0.53132246  0.91865721  1
  C  C58  1  0.49999991  0.56209475  0.71039290  1
  C  C59  1  0.50000008  0.56147552  0.95754621  1
  C  C60  1  0.50000000  0.50010938  0.54235223  1
  C  C61  1  0.49999998  0.49842038  0.04108528  1
  C  C62  1  0.49999999  0.50050889  0.79299587  1
  C  C63  1  0.50000000  0.49881828  0.29120499  1
  C  C64  1  0.49999995  0.53185377  0.58454206  1
  C  C65  1  0.50000009  0.53116980  0.83472122  1
  C  C66  1  0.49999960  0.59319733  0.67021963  1
  C  C67  1  0.50000041  0.59252086  0.91846245  1
  C  C68  1  0.49999971  0.62388837  0.71124743  1
  C  C69  1  0.50000046  0.62260740  0.95936356  1
  C  C70  1  0.49999986  0.56227385  0.54658114  1
  C  C71  1  0.50000021  0.56195433  0.79371328  1
  C  C72  1  0.49999960  0.59325950  0.58650600  1
  C  C73  1  0.50000048  0.59282755  0.83482041  1
  C  C74  1  0.49999950  0.65471847  0.67031404  1
  C  C75  1  0.50000063  0.65352180  0.92071316  1
  C  C76  1  0.49999974  0.68577923  0.71141815  1
  C  C77  1  0.50000049  0.68392498  0.96274875  1
  C  C78  1  0.49999963  0.62366892  0.54677866  1
  C  C79  1  0.50000023  0.62369560  0.79478993  1
  C  C80  1  0.49999950  0.65442134  0.58647518  1
  C  C81  1  0.50000042  0.65427327  0.83688069  1
  C  C82  1  0.49999992  0.71526561  0.66791912  1
  C  C83  1  0.50000018  0.71398460  0.92343980  1
  C  C84  1  0.49999966  0.68513510  0.54561745  1
  C  C85  1  0.50000002  0.68557501  0.79692398  1
  C  C86  1  0.49999988  0.71492430  0.58603636  1
  C  C87  1  0.50000001  0.71479477  0.84151096  1
  H  H88  1  0.49999997  0.26123365  0.69511389  1
  H  H89  1  0.49999999  0.26152717  0.94847548  1
  H  H90  1  0.49999999  0.26195597  0.55279914  1
  H  H91  1  0.50000003  0.26107808  0.80610006  1
  H  H92  1  0.50000007  0.73940453  0.69737086  1
  H  H93  1  0.49999996  0.73743695  0.95606569  1
  H  H94  1  0.50000005  0.73857375  0.55426075  1
  H  H95  1  0.49999991  0.73910353  0.81282006  1
  H  H96  1  0.49999961  0.68479332  0.48181678  1
  H  H97  1  0.49999998  0.29182195  0.18107799  1
  H  H98  1  0.50000003  0.29215200  0.43198396  1
  H  H99  1  0.50000000  0.29176342  0.06974601  1
  H  H100  1  0.49999998  0.29184947  0.32139730  1
  H  H101  1  0.49999981  0.62377158  0.48293329  1
  H  H102  1  0.49999996  0.56336653  0.48296119  1
  H  H103  1  0.50000007  0.52270192  0.18116906  1
  H  H104  1  0.49999999  0.52229023  0.42952629  1
  H  H105  1  0.49999999  0.52183534  0.07285078  1
  H  H106  1  0.49999998  0.52282468  0.32109091  1
  H  H107  1  0.49999997  0.56252120  0.02112557  1
  H  H108  1  0.50000011  0.62231910  0.02319175  1
  H  H109  1  0.50000038  0.68304494  0.02654156  1
