# generated using pymatgen
data_HC5
_symmetry_space_group_name_H-M   'P 1'
_cell_length_a   20.00000000
_cell_length_b   40.19450000
_cell_length_c   17.17140730
_cell_angle_alpha   90.00000000
_cell_angle_beta   90.00000000
_cell_angle_gamma   90.00000000
_symmetry_Int_Tables_number   1
_chemical_formula_structural   HC5
_chemical_formula_sum   'H20 C100'
_cell_volume   13803.92261595
_cell_formula_units_Z   20
loop_
 _symmetry_equiv_pos_site_id
 _symmetry_equiv_pos_as_xyz
  1  'x, y, z'
loop_
 _atom_site_type_symbol
 _atom_site_label
 _atom_site_symmetry_multiplicity
 _atom_site_fract_x
 _atom_site_fract_y
 _atom_site_fract_z
 _atom_site_occupancy
  C  C0  1  0.50000000  0.28552869  0.66517915  1
  C  C1  1  0.50000000  0.28525081  0.16531122  1
  C  C2  1  0.50000000  0.28528011  0.91497569  1
  C  C3  1  0.50000000  0.28546493  0.41527736  1
  C  C4  1  0.50000000  0.31555513  0.70832557  1
  C  C5  1  0.50000000  0.31534560  0.20833415  1
  C  C6  1  0.50000000  0.31532814  0.95824607  1
  C  C7  1  0.50000000  0.31550525  0.45837324  1
  C  C8  1  0.50000000  0.28551788  0.58518728  1
  C  C9  1  0.50000000  0.28522618  0.08527855  1
  C  C10  1  0.50000000  0.28535748  0.83491648  1
  C  C11  1  0.50000000  0.28542325  0.33526417  1
  C  C12  1  0.50000000  0.34623843  0.66704065  1
  C  C13  1  0.50000000  0.34601613  0.16698276  1
  C  C14  1  0.50000000  0.34606945  0.91706301  1
  C  C15  1  0.50000000  0.34614747  0.41702858  1
  C  C16  1  0.50000000  0.37709425  0.70893656  1
  C  C17  1  0.50000000  0.37687164  0.20893440  1
  C  C18  1  0.50000001  0.37693419  0.95892561  1
  C  C19  1  0.50000001  0.37698805  0.45900455  1
  C  C20  1  0.50000000  0.31555371  0.54211899  1
  C  C21  1  0.50000000  0.31529416  0.04210497  1
  C  C22  1  0.50000000  0.31550106  0.79208206  1
  C  C23  1  0.50000000  0.31542079  0.29208952  1
  C  C24  1  0.50000001  0.34621207  0.58361574  1
  C  C25  1  0.50000000  0.34598521  0.08349189  1
  C  C26  1  0.50000001  0.34614960  0.83357742  1
  C  C27  1  0.50000000  0.34609149  0.33357146  1
  C  C28  1  0.50000001  0.40787951  0.66725950  1
  C  C29  1  0.50000000  0.40761487  0.16722753  1
  C  C30  1  0.50000001  0.40769717  0.91709292  1
  C  C31  1  0.50000000  0.40769807  0.41728660  1
  C  C32  1  0.50000000  0.43857127  0.70884190  1
  C  C33  1  0.49999998  0.43828073  0.20891123  1
  C  C34  1  0.50000000  0.43833241  0.95874888  1
  C  C35  1  0.49999999  0.43836007  0.45907336  1
  C  C36  1  0.50000000  0.37706760  0.54189953  1
  C  C37  1  0.50000000  0.37686726  0.04178376  1
  C  C38  1  0.50000001  0.37705416  0.79182564  1
  C  C39  1  0.50000000  0.37691903  0.29185162  1
  C  C40  1  0.50000001  0.40781665  0.58386541  1
  C  C41  1  0.50000000  0.40757121  0.08378627  1
  C  C42  1  0.50000001  0.40780211  0.83366134  1
  C  C43  1  0.49999999  0.40765022  0.33386435  1
  C  C44  1  0.50000001  0.46942462  0.66728237  1
  C  C45  1  0.49999997  0.46896427  0.16713730  1
  C  C46  1  0.49999999  0.46910046  0.91689422  1
  C  C47  1  0.50000000  0.46908174  0.41742236  1
  C  C48  1  0.50000000  0.50035783  0.70907434  1
  C  C49  1  0.49999998  0.49984631  0.20906766  1
  C  C50  1  0.49999999  0.49984295  0.95884877  1
  C  C51  1  0.49999999  0.49984168  0.45953800  1
  C  C52  1  0.50000000  0.43850989  0.54248629  1
  C  C53  1  0.50000000  0.43821327  0.04217029  1
  C  C54  1  0.50000000  0.43851462  0.79217691  1
  C  C55  1  0.49999999  0.43834289  0.29246253  1
  C  C56  1  0.50000000  0.46931177  0.58440932  1
  C  C57  1  0.49999999  0.46887939  0.08407648  1
  C  C58  1  0.50000000  0.46928882  0.83401667  1
  C  C59  1  0.49999999  0.46904430  0.33441121  1
  C  C60  1  0.49999999  0.53108050  0.66799725  1
  C  C61  1  0.49999998  0.53043543  0.16757534  1
  C  C62  1  0.50000000  0.53056155  0.91733592  1
  C  C63  1  0.50000000  0.53059936  0.41842500  1
  C  C64  1  0.50000001  0.56206264  0.70982554  1
  C  C65  1  0.50000001  0.56044119  0.21069120  1
  C  C66  1  0.50000000  0.56107684  0.95984340  1
  C  C67  1  0.50000000  0.56039157  0.46130645  1
  C  C68  1  0.50000000  0.50015639  0.54276997  1
  C  C69  1  0.49999998  0.49959682  0.04206100  1
  C  C70  1  0.50000000  0.50026735  0.79249986  1
  C  C71  1  0.50000000  0.49991797  0.29259009  1
  C  C72  1  0.49999999  0.53091844  0.58462870  1
  C  C73  1  0.49999997  0.53029951  0.08331513  1
  C  C74  1  0.50000000  0.53087348  0.83399087  1
  C  C75  1  0.50000000  0.53058565  0.33413989  1
  C  C76  1  0.49999997  0.59305727  0.66854803  1
  C  C77  1  0.50000006  0.59277769  0.91827379  1
  C  C78  1  0.49999993  0.62373414  0.71017556  1
  C  C79  1  0.50000015  0.62290225  0.95753626  1
  C  C80  1  0.50000000  0.56158389  0.54237144  1
  C  C81  1  0.49999998  0.56004004  0.04069826  1
  C  C82  1  0.50000001  0.56194298  0.79261720  1
  C  C83  1  0.50000001  0.56050086  0.29084261  1
  C  C84  1  0.49999995  0.59332181  0.58467580  1
  C  C85  1  0.50000009  0.59279733  0.83451869  1
  C  C86  1  0.49999970  0.65487818  0.66987256  1
  C  C87  1  0.50000040  0.65386627  0.91871660  1
  C  C88  1  0.49999991  0.68601458  0.71061851  1
  C  C89  1  0.50000032  0.68400753  0.96131784  1
  C  C90  1  0.49999981  0.62379653  0.54659446  1
  C  C91  1  0.50000020  0.62359314  0.79380669  1
  C  C92  1  0.49999960  0.65466514  0.58644399  1
  C  C93  1  0.50000041  0.65447443  0.83533127  1
  C  C94  1  0.49999999  0.71552813  0.66701001  1
  C  C95  1  0.50000015  0.71419644  0.92237249  1
  C  C96  1  0.49999965  0.68518460  0.54517575  1
  C  C97  1  0.50000016  0.68583004  0.79585977  1
  C  C98  1  0.49999987  0.71514706  0.58522487  1
  C  C99  1  0.50000007  0.71504851  0.84060767  1
  H  H100  1  0.50000000  0.26154092  0.69502162  1
  H  H101  1  0.50000001  0.26132494  0.19554620  1
  H  H102  1  0.50000000  0.26131129  0.94505679  1
  H  H103  1  0.50000000  0.26150393  0.44524941  1
  H  H104  1  0.50000000  0.26157203  0.55510057  1
  H  H105  1  0.50000001  0.26129309  0.05500659  1
  H  H106  1  0.50000000  0.26146878  0.80446606  1
  H  H107  1  0.50000000  0.26144719  0.30535255  1
  H  H108  1  0.50000012  0.73970668  0.69634431  1
  H  H109  1  0.50000000  0.73754305  0.95534744  1
  H  H110  1  0.49999992  0.73875302  0.55317326  1
  H  H111  1  0.49999999  0.73938094  0.81208942  1
  H  H112  1  0.49999954  0.68474347  0.48131806  1
  H  H113  1  0.49999984  0.62506704  0.48295612  1
  H  H114  1  0.50000004  0.58441153  0.18079108  1
  H  H115  1  0.50000000  0.58382653  0.42948841  1
  H  H116  1  0.50000000  0.58341546  0.07264421  1
  H  H117  1  0.49999999  0.58447330  0.32084115  1
  H  H118  1  0.50000002  0.62370590  0.02121614  1
  H  H119  1  0.50000024  0.68293193  0.02516157  1
