# generated using pymatgen
data_H7C18
_symmetry_space_group_name_H-M   'P 1'
_cell_length_a   20.00000000
_cell_length_b   40.19450000
_cell_length_c   18.08584185
_cell_angle_alpha   90.00000000
_cell_angle_beta   90.00000000
_cell_angle_gamma   90.00000000
_symmetry_Int_Tables_number   1
_chemical_formula_structural   H7C18
_chemical_formula_sum   'H28 C72'
_cell_volume   14539.02740084
_cell_formula_units_Z   4
loop_
 _symmetry_equiv_pos_site_id
 _symmetry_equiv_pos_as_xyz
  1  'x, y, z'
loop_
 _atom_site_type_symbol
 _atom_site_label
 _atom_site_symmetry_multiplicity
 _atom_site_fract_x
 _atom_site_fract_y
 _atom_site_fract_z
 _atom_site_occupancy
  C  C0  1  0.49999998  0.28580727  0.67293461  1
  C  C1  1  0.50000003  0.28479624  0.90329798  1
  C  C2  1  0.49999999  0.31652508  0.70945361  1
  C  C3  1  0.50000014  0.31400680  0.94338030  1
  C  C4  1  0.49999997  0.28476899  0.59658429  1
  C  C5  1  0.49999996  0.28582071  0.82696071  1
  C  C6  1  0.50000007  0.34694237  0.66819859  1
  C  C7  1  0.50000002  0.34776357  0.16639780  1
  C  C8  1  0.49999997  0.34647420  0.91269904  1
  C  C9  1  0.50000004  0.34817425  0.41041488  1
  C  C10  1  0.50000011  0.37737226  0.70954612  1
  C  C11  1  0.50000002  0.37677024  0.20955946  1
  C  C12  1  0.49999988  0.37700021  0.95758704  1
  C  C13  1  0.50000022  0.37705836  0.45748604  1
  C  C14  1  0.49999991  0.31398331  0.55647355  1
  C  C15  1  0.49999998  0.31652549  0.79039925  1
  C  C16  1  0.50000005  0.34645626  0.58712100  1
  C  C17  1  0.49999993  0.34817148  0.08946138  1
  C  C18  1  0.49999993  0.34695125  0.83163278  1
  C  C19  1  0.49999996  0.34776491  0.33346713  1
  C  C20  1  0.50000011  0.40742408  0.66888040  1
  C  C21  1  0.49999976  0.40588739  0.16674054  1
  C  C22  1  0.50000006  0.40753363  0.91270705  1
  C  C23  1  0.50000063  0.40584151  0.41004245  1
  C  C24  1  0.49999990  0.43818778  0.70998493  1
  C  C25  1  0.50000084  0.43952183  0.94352842  1
  C  C26  1  0.50000012  0.37700314  0.54225978  1
  C  C27  1  0.49999978  0.37704746  0.04237070  1
  C  C28  1  0.49999991  0.37737848  0.79031049  1
  C  C29  1  0.49999993  0.37677156  0.29030463  1
  C  C30  1  0.49999991  0.40752612  0.58718043  1
  C  C31  1  0.49999940  0.40583525  0.08981445  1
  C  C32  1  0.49999990  0.40742698  0.83099985  1
  C  C33  1  0.50000022  0.40589054  0.33311129  1
  C  C34  1  0.49999946  0.46945746  0.67317773  1
  C  C35  1  0.50000095  0.46984079  0.90558103  1
  C  C36  1  0.49999948  0.50044523  0.71069212  1
  C  C37  1  0.50000147  0.50007847  0.94489083  1
  C  C38  1  0.49999903  0.43950814  0.55634355  1
  C  C39  1  0.50000009  0.43819444  0.78990487  1
  C  C40  1  0.49999900  0.46982522  0.59430278  1
  C  C41  1  0.50000055  0.46946668  0.82670558  1
  C  C42  1  0.49999860  0.53108540  0.67138365  1
  C  C43  1  0.50000193  0.53106017  0.90849179  1
  C  C44  1  0.49999906  0.56168917  0.71032839  1
  C  C45  1  0.50000220  0.56155905  0.94653740  1
  C  C46  1  0.49999852  0.50006138  0.55499852  1
  C  C47  1  0.50000056  0.50045049  0.78920199  1
  C  C48  1  0.49999810  0.53104892  0.59141358  1
  C  C49  1  0.50000144  0.53108586  0.82853412  1
  C  C50  1  0.49999809  0.59251514  0.67118955  1
  C  C51  1  0.50000257  0.59232358  0.90880121  1
  C  C52  1  0.49999902  0.62310297  0.71013606  1
  C  C53  1  0.50000233  0.62288972  0.94658598  1
  C  C54  1  0.49999781  0.56154944  0.55337525  1
  C  C55  1  0.50000101  0.56169442  0.78961372  1
  C  C56  1  0.49999745  0.59231622  0.59112601  1
  C  C57  1  0.50000196  0.59252358  0.82876045  1
  C  C58  1  0.49999849  0.65391327  0.67087130  1
  C  C59  1  0.50000213  0.65353530  0.90891591  1
  C  C60  1  0.49999949  0.68498493  0.70946001  1
  C  C61  1  0.50000157  0.68423041  0.94799023  1
  C  C62  1  0.49999767  0.62290067  0.55341355  1
  C  C63  1  0.50000103  0.62311555  0.78985340  1
  C  C64  1  0.49999788  0.65353968  0.59112100  1
  C  C65  1  0.50000157  0.65392921  0.82916177  1
  C  C66  1  0.49999969  0.71447471  0.66805575  1
  C  C67  1  0.50000071  0.71408475  0.90984476  1
  C  C68  1  0.49999844  0.68424801  0.55211511  1
  C  C69  1  0.50000058  0.68500031  0.79059685  1
  C  C70  1  0.49999928  0.71408708  0.59028655  1
  C  C71  1  0.50000035  0.71447975  0.83204875  1
  H  H72  1  0.49999997  0.26231976  0.70288170  1
  H  H73  1  0.49999999  0.26091416  0.93252087  1
  H  H74  1  0.50000003  0.26088070  0.56735789  1
  H  H75  1  0.49999994  0.26233108  0.79702609  1
  H  H76  1  0.50000052  0.73858539  0.69612167  1
  H  H77  1  0.49999998  0.73772245  0.94009097  1
  H  H78  1  0.50000003  0.73772226  0.56005815  1
  H  H79  1  0.49999947  0.73859221  0.80397665  1
  H  H80  1  0.49999844  0.68381167  0.49150625  1
  H  H81  1  0.49999997  0.32321607  0.19269524  1
  H  H82  1  0.50000025  0.32305633  0.43068296  1
  H  H83  1  0.49999967  0.31010123  0.49808256  1
  H  H84  1  0.49999973  0.32304385  0.06924956  1
  H  H85  1  0.50000002  0.32321644  0.30716774  1
  H  H86  1  0.49999849  0.62295823  0.49279944  1
  H  H87  1  0.49999851  0.56149831  0.49271512  1
  H  H88  1  0.49999873  0.49945789  0.49431414  1
  H  H89  1  0.49999956  0.43032029  0.19348792  1
  H  H90  1  0.50000186  0.43111342  0.42952809  1
  H  H91  1  0.49999832  0.43110721  0.07032238  1
  H  H92  1  0.50000041  0.43032000  0.30635959  1
  H  H93  1  0.49999780  0.44305600  0.49786263  1
  H  H94  1  0.50000045  0.31015687  0.00178364  1
  H  H95  1  0.50000188  0.44307850  0.00200704  1
  H  H96  1  0.50000125  0.49948318  0.00556915  1
  H  H97  1  0.50000144  0.56153112  0.00717571  1
  H  H98  1  0.50000149  0.62294862  0.00720245  1
  H  H99  1  0.50000160  0.68377139  0.00861175  1
