# generated using pymatgen
data_H7C16
_symmetry_space_group_name_H-M   'P 1'
_cell_length_a   20.00000000
_cell_length_b   40.19450000
_cell_length_c   18.27497809
_cell_angle_alpha   90.00000000
_cell_angle_beta   90.00000000
_cell_angle_gamma   90.00000000
_symmetry_Int_Tables_number   1
_chemical_formula_structural   H7C16
_chemical_formula_sum   'H28 C64'
_cell_volume   14691.07213695
_cell_formula_units_Z   4
loop_
 _symmetry_equiv_pos_site_id
 _symmetry_equiv_pos_as_xyz
  1  'x, y, z'
loop_
 _atom_site_type_symbol
 _atom_site_label
 _atom_site_symmetry_multiplicity
 _atom_site_fract_x
 _atom_site_fract_y
 _atom_site_fract_z
 _atom_site_occupancy
  C  C0  1  0.49999807  0.28516360  0.67315499  1
  C  C1  1  0.50000272  0.28471490  0.90731547  1
  C  C2  1  0.49999862  0.31527443  0.71249352  1
  C  C3  1  0.50000308  0.31463333  0.94584252  1
  C  C4  1  0.49999761  0.28502085  0.59720587  1
  C  C5  1  0.50000064  0.28498645  0.83136377  1
  C  C6  1  0.49999882  0.34603428  0.67354105  1
  C  C7  1  0.50000094  0.34536615  0.90966008  1
  C  C8  1  0.49999938  0.37722140  0.71377326  1
  C  C9  1  0.50000273  0.37826229  0.21654193  1
  C  C10  1  0.49999911  0.37672761  0.95188098  1
  C  C11  1  0.50000523  0.37704785  0.47940312  1
  C  C12  1  0.49999791  0.31502058  0.55892722  1
  C  C13  1  0.49999966  0.31518686  0.79233963  1
  C  C14  1  0.49999881  0.34569663  0.59546951  1
  C  C15  1  0.50000002  0.34584625  0.83161630  1
  C  C16  1  0.49999933  0.40795298  0.67465082  1
  C  C17  1  0.50000090  0.40828072  0.91032232  1
  C  C18  1  0.49999954  0.43871246  0.71399970  1
  C  C19  1  0.50000272  0.43856894  0.94613393  1
  C  C20  1  0.50000070  0.37719024  0.55369453  1
  C  C21  1  0.49999444  0.37652117  0.02618271  1
  C  C22  1  0.49999964  0.37711014  0.79175738  1
  C  C23  1  0.49999756  0.37770538  0.28979108  1
  C  C24  1  0.49999897  0.40866072  0.59563320  1
  C  C25  1  0.50000029  0.40773606  0.83133086  1
  C  C26  1  0.49999886  0.46969246  0.67624507  1
  C  C27  1  0.50000262  0.46962628  0.90939284  1
  C  C28  1  0.49999947  0.50050024  0.71472675  1
  C  C29  1  0.50000356  0.49978519  0.94776874  1
  C  C30  1  0.49999734  0.43905433  0.56021524  1
  C  C31  1  0.50000050  0.43862582  0.79256927  1
  C  C32  1  0.49999753  0.46999951  0.59760852  1
  C  C33  1  0.50000150  0.46948947  0.83082382  1
  C  C34  1  0.49999841  0.53117924  0.67620159  1
  C  C35  1  0.50000384  0.53085200  0.91137119  1
  C  C36  1  0.49999949  0.56181118  0.71521572  1
  C  C37  1  0.50000466  0.56133984  0.94902435  1
  C  C38  1  0.49999664  0.50031736  0.55990030  1
  C  C39  1  0.50000137  0.50042314  0.79299691  1
  C  C40  1  0.49999672  0.53120879  0.59701752  1
  C  C41  1  0.50000280  0.53099746  0.83216420  1
  C  C42  1  0.49999788  0.59257379  0.67657969  1
  C  C43  1  0.50000508  0.59217890  0.91187853  1
  C  C44  1  0.49999911  0.62317800  0.71533001  1
  C  C45  1  0.50000582  0.62272496  0.94937561  1
  C  C46  1  0.49999552  0.56173432  0.55971591  1
  C  C47  1  0.50000214  0.56175442  0.79369422  1
  C  C48  1  0.49999547  0.59243138  0.59732711  1
  C  C49  1  0.50000372  0.59248349  0.83263876  1
  C  C50  1  0.49999720  0.65395323  0.67645801  1
  C  C51  1  0.50000557  0.65340014  0.91212358  1
  C  C52  1  0.49999910  0.68503453  0.71470051  1
  C  C53  1  0.50000567  0.68403283  0.95093167  1
  C  C54  1  0.49999360  0.62297768  0.56001559  1
  C  C55  1  0.50000249  0.62316105  0.79414952  1
  C  C56  1  0.49999418  0.65355318  0.59752131  1
  C  C57  1  0.50000377  0.65390872  0.83317939  1
  C  C58  1  0.49999850  0.71447249  0.67347625  1
  C  C59  1  0.50000378  0.71393801  0.91334536  1
  C  C60  1  0.49999303  0.68418145  0.55880312  1
  C  C61  1  0.50000191  0.68503561  0.79508206  1
  C  C62  1  0.49999545  0.71404454  0.59648079  1
  C  C63  1  0.50000190  0.71447078  0.83635951  1
  H  H64  1  0.49999809  0.26135028  0.70202244  1
  H  H65  1  0.50000420  0.26106638  0.93708742  1
  H  H66  1  0.49999728  0.26140947  0.56725202  1
  H  H67  1  0.50000013  0.26120858  0.80243879  1
  H  H68  1  0.50000063  0.73857242  0.70127492  1
  H  H69  1  0.50000320  0.73749361  0.94358626  1
  H  H70  1  0.49999549  0.73762247  0.56635951  1
  H  H71  1  0.50000002  0.73866275  0.80887086  1
  H  H72  1  0.49999086  0.68353490  0.49882684  1
  H  H73  1  0.49999748  0.31409274  0.49916020  1
  H  H74  1  0.50000594  0.35528425  0.18426969  1
  H  H75  1  0.50000696  0.35398253  0.44801663  1
  H  H76  1  0.49999231  0.35354196  0.05785418  1
  H  H77  1  0.49999637  0.35425907  0.32041350  1
  H  H78  1  0.49999209  0.62303034  0.49998809  1
  H  H79  1  0.49999463  0.56175409  0.49968290  1
  H  H80  1  0.49999603  0.50016824  0.49984793  1
  H  H81  1  0.49999581  0.44025317  0.50042631  1
  H  H82  1  0.50000396  0.40173057  0.18597322  1
  H  H83  1  0.50000771  0.39988403  0.44718226  1
  H  H84  1  0.49999218  0.39937412  0.05830400  1
  H  H85  1  0.49999436  0.40067015  0.32210922  1
  H  H86  1  0.50000520  0.31367243  0.00555479  1
  H  H87  1  0.50000448  0.43950286  0.00591014  1
  H  H88  1  0.50000371  0.49918503  0.00777435  1
  H  H89  1  0.50000461  0.56129015  0.00904974  1
  H  H90  1  0.50000587  0.62278430  0.00940386  1
  H  H91  1  0.50000681  0.68344907  0.01091834  1
