# generated using pymatgen
data_HC7
_symmetry_space_group_name_H-M   'P 1'
_cell_length_a   20.00000000
_cell_length_b   40.19450000
_cell_length_c   17.15487036
_cell_angle_alpha   90.00000000
_cell_angle_beta   90.00000000
_cell_angle_gamma   90.00000000
_symmetry_Int_Tables_number   1
_chemical_formula_structural   HC7
_chemical_formula_sum   'H16 C112'
_cell_volume   13790.62873416
_cell_formula_units_Z   16
loop_
 _symmetry_equiv_pos_site_id
 _symmetry_equiv_pos_as_xyz
  1  'x, y, z'
loop_
 _atom_site_type_symbol
 _atom_site_label
 _atom_site_symmetry_multiplicity
 _atom_site_fract_x
 _atom_site_fract_y
 _atom_site_fract_z
 _atom_site_occupancy
  C  C0  1  0.50000000  0.28505350  0.66440536  1
  C  C1  1  0.50000000  0.28528360  0.91621852  1
  C  C2  1  0.50000000  0.31519755  0.70864643  1
  C  C3  1  0.50000000  0.31623106  0.21016883  1
  C  C4  1  0.49999999  0.31583210  0.95847400  1
  C  C5  1  0.50000001  0.31630638  0.46047833  1
  C  C6  1  0.50000001  0.28527530  0.58455384  1
  C  C7  1  0.49999999  0.28505204  0.83635862  1
  C  C8  1  0.50000000  0.34614960  0.66752992  1
  C  C9  1  0.49999999  0.34613345  0.16711876  1
  C  C10  1  0.49999999  0.34650033  0.91633098  1
  C  C11  1  0.50000000  0.34598671  0.41784013  1
  C  C12  1  0.50000001  0.37703961  0.70891055  1
  C  C13  1  0.50000000  0.37682554  0.20845993  1
  C  C14  1  0.50000000  0.37708296  0.95834894  1
  C  C15  1  0.50000000  0.37699009  0.45902403  1
  C  C16  1  0.50000001  0.31580720  0.54213483  1
  C  C17  1  0.49999999  0.31632096  0.04006504  1
  C  C18  1  0.50000000  0.31520656  0.79215281  1
  C  C19  1  0.50000000  0.31619929  0.29053148  1
  C  C20  1  0.50000000  0.34647842  0.58431648  1
  C  C21  1  0.49999999  0.34601140  0.08263515  1
  C  C22  1  0.50000000  0.34617030  0.83317082  1
  C  C23  1  0.50000000  0.34613288  0.33341355  1
  C  C24  1  0.50000000  0.40778728  0.66696819  1
  C  C25  1  0.50000000  0.40778631  0.16675483  1
  C  C26  1  0.50000000  0.40789882  0.91667031  1
  C  C27  1  0.50000000  0.40776243  0.41706438  1
  C  C28  1  0.50000000  0.43854096  0.70864209  1
  C  C29  1  0.49999999  0.43842728  0.20852451  1
  C  C30  1  0.49999999  0.43854226  0.95847813  1
  C  C31  1  0.50000000  0.43851667  0.45868132  1
  C  C32  1  0.49999999  0.37706309  0.54221209  1
  C  C33  1  0.49999999  0.37701013  0.04148450  1
  C  C34  1  0.50000002  0.37704736  0.79174906  1
  C  C35  1  0.50000000  0.37681350  0.29202795  1
  C  C36  1  0.50000000  0.40788188  0.58387489  1
  C  C37  1  0.50000000  0.40776961  0.08351894  1
  C  C38  1  0.50000000  0.40780815  0.83358623  1
  C  C39  1  0.50000000  0.40776651  0.33382085  1
  C  C40  1  0.50000000  0.46925653  0.66695887  1
  C  C41  1  0.50000001  0.46922097  0.16699142  1
  C  C42  1  0.50000000  0.46927013  0.91685145  1
  C  C43  1  0.50000000  0.46923555  0.41698786  1
  C  C44  1  0.50000000  0.50000010  0.70870355  1
  C  C45  1  0.50000000  0.50000013  0.20870954  1
  C  C46  1  0.50000001  0.50000011  0.95865205  1
  C  C47  1  0.50000001  0.50000009  0.45873166  1
  C  C48  1  0.50000000  0.43853784  0.54209976  1
  C  C49  1  0.50000000  0.43851813  0.04190168  1
  C  C50  1  0.50000000  0.43854712  0.79187453  1
  C  C51  1  0.50000000  0.43842683  0.29213910  1
  C  C52  1  0.50000000  0.46927120  0.58371149  1
  C  C53  1  0.50000000  0.46923317  0.08366036  1
  C  C54  1  0.50000001  0.46925644  0.83358411  1
  C  C55  1  0.50000000  0.46922132  0.33367685  1
  C  C56  1  0.50000000  0.53074368  0.66695864  1
  C  C57  1  0.50000001  0.53077925  0.16699117  1
  C  C58  1  0.50000000  0.53073011  0.91685122  1
  C  C59  1  0.50000000  0.53076462  0.41698759  1
  C  C60  1  0.50000000  0.56145927  0.70864178  1
  C  C61  1  0.49999999  0.56157299  0.20852397  1
  C  C62  1  0.49999999  0.56145804  0.95847756  1
  C  C63  1  0.50000000  0.56148349  0.45868053  1
  C  C64  1  0.50000000  0.50000014  0.54194544  1
  C  C65  1  0.50000000  0.50000009  0.04190861  1
  C  C66  1  0.50000000  0.50000009  0.79185212  1
  C  C67  1  0.50000000  0.50000007  0.29195629  1
  C  C68  1  0.50000000  0.53072909  0.58371120  1
  C  C69  1  0.50000000  0.53076700  0.08366020  1
  C  C70  1  0.50000001  0.53074371  0.83358387  1
  C  C71  1  0.50000000  0.53077887  0.33367651  1
  C  C72  1  0.50000000  0.59221279  0.66696745  1
  C  C73  1  0.50000000  0.59221398  0.16675395  1
  C  C74  1  0.50000000  0.59210142  0.91666972  1
  C  C75  1  0.50000000  0.59223773  0.41706353  1
  C  C76  1  0.50000001  0.62296068  0.70890994  1
  C  C77  1  0.50000000  0.62317461  0.20845903  1
  C  C78  1  0.50000000  0.62291742  0.95834766  1
  C  C79  1  0.50000000  0.62301002  0.45902286  1
  C  C80  1  0.50000000  0.56146243  0.54209918  1
  C  C81  1  0.50000000  0.56148204  0.04190115  1
  C  C82  1  0.50000000  0.56145299  0.79187425  1
  C  C83  1  0.50000000  0.56157336  0.29213856  1
  C  C84  1  0.50000000  0.59211835  0.58387440  1
  C  C85  1  0.50000000  0.59223061  0.08351818  1
  C  C86  1  0.50000000  0.59219212  0.83358555  1
  C  C87  1  0.50000000  0.59223367  0.33381977  1
  C  C88  1  0.50000000  0.65385039  0.66752835  1
  C  C89  1  0.49999999  0.65386687  0.16711740  1
  C  C90  1  0.49999999  0.65350006  0.91633029  1
  C  C91  1  0.50000000  0.65401351  0.41783887  1
  C  C92  1  0.50000000  0.68480271  0.70864499  1
  C  C93  1  0.50000000  0.68376902  0.21016764  1
  C  C94  1  0.49999999  0.68416819  0.95847223  1
  C  C95  1  0.50000001  0.68369369  0.46047728  1
  C  C96  1  0.49999999  0.62293698  0.54221074  1
  C  C97  1  0.49999999  0.62299018  0.04148333  1
  C  C98  1  0.50000002  0.62295276  0.79174841  1
  C  C99  1  0.50000000  0.62318676  0.29202690  1
  C  C100  1  0.50000000  0.65352171  0.58431565  1
  C  C101  1  0.49999999  0.65398877  0.08263394  1
  C  C102  1  0.50000000  0.65383008  0.83316936  1
  C  C103  1  0.50000000  0.65386728  0.33341234  1
  C  C104  1  0.50000000  0.71494662  0.66440281  1
  C  C105  1  0.50000000  0.71471675  0.91621775  1
  C  C106  1  0.50000001  0.68419287  0.54213307  1
  C  C107  1  0.49999999  0.68367971  0.04006369  1
  C  C108  1  0.50000000  0.68479350  0.79215142  1
  C  C109  1  0.50000000  0.68380088  0.29052981  1
  C  C110  1  0.50000001  0.71472482  0.58455310  1
  C  C111  1  0.49999999  0.71494821  0.83635525  1
  H  H112  1  0.49999997  0.26104228  0.69433876  1
  H  H113  1  0.50000002  0.26186173  0.94900788  1
  H  H114  1  0.50000002  0.26176229  0.55209411  1
  H  H115  1  0.50000001  0.26106968  0.80633267  1
  H  H116  1  0.49999997  0.73895810  0.69433695  1
  H  H117  1  0.50000002  0.73813850  0.94900483  1
  H  H118  1  0.50000002  0.73823782  0.55209178  1
  H  H119  1  0.50000001  0.73893037  0.80633058  1
  H  H120  1  0.50000000  0.70769981  0.18001658  1
  H  H121  1  0.50000001  0.70772727  0.43060790  1
  H  H122  1  0.50000000  0.70770388  0.06993412  1
  H  H123  1  0.49999999  0.70776005  0.32061878  1
  H  H124  1  0.50000000  0.29230038  0.18001847  1
  H  H125  1  0.50000001  0.29227277  0.43060955  1
  H  H126  1  0.50000000  0.29229689  0.06993696  1
  H  H127  1  0.49999999  0.29224008  0.32061977  1
