# generated using pymatgen
data_H3C11
_symmetry_space_group_name_H-M   'P 1'
_cell_length_a   20.00000000
_cell_length_b   40.19450000
_cell_length_c   17.53055850
_cell_angle_alpha   90.00000000
_cell_angle_beta   90.00000000
_cell_angle_gamma   90.00000000
_symmetry_Int_Tables_number   1
_chemical_formula_structural   H3C11
_chemical_formula_sum   'H24 C88'
_cell_volume   14092.64067196
_cell_formula_units_Z   8
loop_
 _symmetry_equiv_pos_site_id
 _symmetry_equiv_pos_as_xyz
  1  'x, y, z'
loop_
 _atom_site_type_symbol
 _atom_site_label
 _atom_site_symmetry_multiplicity
 _atom_site_fract_x
 _atom_site_fract_y
 _atom_site_fract_z
 _atom_site_occupancy
  C  C0  1  0.50000000  0.28464612  0.67184082  1
  C  C1  1  0.50000000  0.28336381  0.90635137  1
  C  C2  1  0.49999999  0.31551024  0.70876714  1
  C  C3  1  0.50000003  0.31274773  0.94691762  1
  C  C4  1  0.50000001  0.28337517  0.59360073  1
  C  C5  1  0.49999998  0.28463796  0.82811977  1
  C  C6  1  0.49999999  0.34612559  0.66733625  1
  C  C7  1  0.49999999  0.34856410  0.16854554  1
  C  C8  1  0.50000001  0.34507414  0.91480970  1
  C  C9  1  0.50000000  0.34830737  0.40926949  1
  C  C10  1  0.49999999  0.37716867  0.70853522  1
  C  C11  1  0.50000002  0.37844647  0.20923576  1
  C  C12  1  0.50000001  0.37610963  0.95887491  1
  C  C13  1  0.49999999  0.37685054  0.45760776  1
  C  C14  1  0.50000001  0.31276214  0.55306139  1
  C  C15  1  0.49999999  0.31550392  0.79120006  1
  C  C16  1  0.49999999  0.34508967  0.58519063  1
  C  C17  1  0.49999997  0.34830953  0.09074897  1
  C  C18  1  0.50000000  0.34611760  0.83266845  1
  C  C19  1  0.50000002  0.34856589  0.33147109  1
  C  C20  1  0.49999999  0.40752627  0.66654590  1
  C  C21  1  0.50000003  0.40809222  0.16603660  1
  C  C22  1  0.50000001  0.40698902  0.91727143  1
  C  C23  1  0.49999999  0.40775527  0.41704151  1
  C  C24  1  0.50000000  0.43861193  0.70818446  1
  C  C25  1  0.50000002  0.43821767  0.20864034  1
  C  C26  1  0.50000000  0.43828187  0.95853457  1
  C  C27  1  0.49999999  0.43829909  0.45925630  1
  C  C28  1  0.49999998  0.37612752  0.54115515  1
  C  C29  1  0.50000001  0.37684765  0.04242001  1
  C  C30  1  0.50000000  0.37716335  0.79148161  1
  C  C31  1  0.50000002  0.37844751  0.29077463  1
  C  C32  1  0.49999999  0.40700798  0.58276725  1
  C  C33  1  0.50000003  0.40775288  0.08298295  1
  C  C34  1  0.50000000  0.40751073  0.83349919  1
  C  C35  1  0.50000000  0.40809112  0.33397936  1
  C  C36  1  0.50000000  0.46936813  0.66652483  1
  C  C37  1  0.50000003  0.46834066  0.16599840  1
  C  C38  1  0.49999999  0.46962058  0.91739385  1
  C  C39  1  0.49999999  0.46882398  0.41711838  1
  C  C40  1  0.50000000  0.50003174  0.70870300  1
  C  C41  1  0.50000002  0.49792444  0.20932289  1
  C  C42  1  0.50000000  0.50042215  0.95892685  1
  C  C43  1  0.50000001  0.49981452  0.45766358  1
  C  C44  1  0.50000000  0.43829961  0.54150447  1
  C  C45  1  0.50000002  0.43829799  0.04076882  1
  C  C46  1  0.49999999  0.43860632  0.79187386  1
  C  C47  1  0.50000000  0.43822032  0.29139639  1
  C  C48  1  0.50000000  0.46963969  0.58265329  1
  C  C49  1  0.50000002  0.46882128  0.08293213  1
  C  C50  1  0.49999999  0.46935884  0.83352770  1
  C  C51  1  0.50000000  0.46833914  0.33405513  1
  C  C52  1  0.49999998  0.53095233  0.66829283  1
  C  C53  1  0.49999998  0.52785018  0.16884858  1
  C  C54  1  0.50000005  0.53151695  0.91454349  1
  C  C55  1  0.50000006  0.52832358  0.40894902  1
  C  C56  1  0.50000000  0.56181842  0.70934151  1
  C  C57  1  0.50000013  0.56306215  0.94702354  1
  C  C58  1  0.49999999  0.50044072  0.54112540  1
  C  C59  1  0.49999998  0.49980970  0.04238523  1
  C  C60  1  0.50000001  0.50001922  0.79134468  1
  C  C61  1  0.50000000  0.49793100  0.29074759  1
  C  C62  1  0.49999995  0.53154900  0.58550303  1
  C  C63  1  0.49999993  0.52831835  0.09112890  1
  C  C64  1  0.50000004  0.53094114  0.83176852  1
  C  C65  1  0.50000003  0.52786478  0.33123031  1
  C  C66  1  0.49999995  0.59345281  0.67172779  1
  C  C67  1  0.50000015  0.59367989  0.90910410  1
  C  C68  1  0.49999998  0.62452744  0.70963960  1
  C  C69  1  0.50000021  0.62353432  0.95061100  1
  C  C70  1  0.49999986  0.56311352  0.55305450  1
  C  C71  1  0.50000004  0.56181391  0.79075577  1
  C  C72  1  0.49999985  0.59372234  0.59104542  1
  C  C73  1  0.50000008  0.59343190  0.82842639  1
  C  C74  1  0.49999992  0.65514004  0.66869093  1
  C  C75  1  0.50000017  0.65455877  0.91368883  1
  C  C76  1  0.50000000  0.68634614  0.70831830  1
  C  C77  1  0.50000019  0.68507904  0.95457915  1
  C  C78  1  0.49999975  0.62359583  0.54961204  1
  C  C79  1  0.50000006  0.62451846  0.79058336  1
  C  C80  1  0.49999980  0.65460683  0.58660632  1
  C  C81  1  0.50000010  0.65512035  0.83160322  1
  C  C82  1  0.49999999  0.71567599  0.66513990  1
  C  C83  1  0.50000011  0.71501403  0.91559075  1
  C  C84  1  0.49999976  0.68514103  0.54578701  1
  C  C85  1  0.50000005  0.68633862  0.79203890  1
  C  C86  1  0.49999988  0.71506005  0.58483268  1
  C  C87  1  0.50000005  0.71565432  0.83528029  1
  H  H88  1  0.50000001  0.26130727  0.70309312  1
  H  H89  1  0.50000000  0.25961410  0.93701221  1
  H  H90  1  0.50000002  0.25963594  0.56290266  1
  H  H91  1  0.49999996  0.26129792  0.79685935  1
  H  H92  1  0.50000006  0.73988987  0.69369019  1
  H  H93  1  0.50000010  0.73855788  0.94718905  1
  H  H94  1  0.49999984  0.73860712  0.55326494  1
  H  H95  1  0.50000002  0.73987996  0.80677869  1
  H  H96  1  0.49999964  0.68454142  0.48326970  1
  H  H97  1  0.49999997  0.32452187  0.19743310  1
  H  H98  1  0.49999998  0.32337552  0.42980933  1
  H  H99  1  0.50000002  0.30802502  0.49334814  1
  H  H100  1  0.49999990  0.32338224  0.07017974  1
  H  H101  1  0.50000003  0.32452381  0.30258344  1
  H  H102  1  0.49999969  0.62270226  0.48703184  1
  H  H103  1  0.49999995  0.55184422  0.19790702  1
  H  H104  1  0.50000016  0.55346692  0.42832464  1
  H  H105  1  0.49999982  0.55347515  0.07183200  1
  H  H106  1  0.50000005  0.55186457  0.30217260  1
  H  H107  1  0.49999976  0.56732412  0.49325895  1
  H  H108  1  0.50000011  0.30799619  0.00664164  1
  H  H109  1  0.50000019  0.56723357  0.00681514  1
  H  H110  1  0.50000024  0.62262761  0.01318582  1
  H  H111  1  0.50000024  0.68445698  0.01710000  1
