# generated using pymatgen
data_H7C16
_symmetry_space_group_name_H-M   'P 1'
_cell_length_a   20.00000000
_cell_length_b   40.19450000
_cell_length_c   18.68647668
_cell_angle_alpha   90.00000000
_cell_angle_beta   90.00000000
_cell_angle_gamma   90.00000000
_symmetry_Int_Tables_number   1
_chemical_formula_structural   H7C16
_chemical_formula_sum   'H28 C64'
_cell_volume   15021.87173548
_cell_formula_units_Z   4
loop_
 _symmetry_equiv_pos_site_id
 _symmetry_equiv_pos_as_xyz
  1  'x, y, z'
loop_
 _atom_site_type_symbol
 _atom_site_label
 _atom_site_symmetry_multiplicity
 _atom_site_fract_x
 _atom_site_fract_y
 _atom_site_fract_z
 _atom_site_occupancy
  C  C0  1  0.49999675  0.28596525  0.67833309  1
  C  C1  1  0.50005371  0.28676477  0.91204902  1
  C  C2  1  0.50000522  0.31555447  0.71814299  1
  C  C3  1  0.50007234  0.31667354  0.94874173  1
  C  C4  1  0.49999321  0.28623253  0.60308689  1
  C  C5  1  0.50002929  0.28620181  0.83684314  1
  C  C6  1  0.50000432  0.34655265  0.68060011  1
  C  C7  1  0.49972889  0.29380417  0.15043085  1
  C  C8  1  0.50005610  0.34732503  0.91088733  1
  C  C9  1  0.49993099  0.37115869  0.36965855  1
  C  C10  1  0.50000707  0.37744928  0.71835532  1
  C  C11  1  0.50006709  0.37806898  0.94708027  1
  C  C12  1  0.49999865  0.31601593  0.56597345  1
  C  C13  1  0.50001966  0.31565866  0.79663360  1
  C  C14  1  0.50000186  0.34679623  0.60345464  1
  C  C15  1  0.49940767  0.32346289  0.13880578  1
  C  C16  1  0.50002944  0.34680573  0.83371533  1
  C  C17  1  0.50040428  0.36291709  0.30026308  1
  C  C18  1  0.50000104  0.40798776  0.68051301  1
  C  C19  1  0.50004485  0.40861142  0.91040499  1
  C  C20  1  0.50000052  0.43892320  0.71800777  1
  C  C21  1  0.50004553  0.43942578  0.94668467  1
  C  C22  1  0.50000235  0.37740650  0.56692486  1
  C  C23  1  0.50001846  0.37758511  0.79550083  1
  C  C24  1  0.49999798  0.40803071  0.60310746  1
  C  C25  1  0.50002357  0.40824843  0.83290933  1
  C  C26  1  0.49999253  0.46941233  0.67984119  1
  C  C27  1  0.50002905  0.46996957  0.90994612  1
  C  C28  1  0.49999372  0.50021890  0.71735625  1
  C  C29  1  0.50002651  0.50073814  0.94612711  1
  C  C30  1  0.49999215  0.43866181  0.56610844  1
  C  C31  1  0.50001209  0.43907828  0.79481510  1
  C  C32  1  0.49998803  0.46933373  0.60221792  1
  C  C33  1  0.50001524  0.46975061  0.83232861  1
  C  C34  1  0.49998800  0.53086188  0.67920049  1
  C  C35  1  0.50001462  0.53134306  0.90929888  1
  C  C36  1  0.49999162  0.56154265  0.71666450  1
  C  C37  1  0.50000961  0.56204500  0.94538447  1
  C  C38  1  0.49998371  0.49993403  0.56540065  1
  C  C39  1  0.50000508  0.50040102  0.79417386  1
  C  C40  1  0.49998337  0.53068379  0.60157728  1
  C  C41  1  0.50000690  0.53123453  0.83166295  1
  C  C42  1  0.49998997  0.59233153  0.67843769  1
  C  C43  1  0.50000450  0.59268016  0.90845016  1
  C  C44  1  0.49999424  0.62301629  0.71572938  1
  C  C45  1  0.50000254  0.62332648  0.94470106  1
  C  C46  1  0.49998373  0.56118829  0.56470681  1
  C  C47  1  0.49999973  0.56173607  0.79348962  1
  C  C48  1  0.49998705  0.59198566  0.60095963  1
  C  C49  1  0.50000136  0.59272183  0.83093605  1
  C  C50  1  0.49999500  0.65376353  0.67737247  1
  C  C51  1  0.50000054  0.65389041  0.90791716  1
  C  C52  1  0.49999766  0.68491443  0.71441304  1
  C  C53  1  0.49999973  0.68466441  0.94545772  1
  C  C54  1  0.49998976  0.62245317  0.56403720  1
  C  C55  1  0.49999833  0.62321453  0.79290609  1
  C  C56  1  0.49999316  0.65317293  0.60018594  1
  C  C57  1  0.49999933  0.65412080  0.83066608  1
  C  C58  1  0.49999856  0.71429041  0.67392812  1
  C  C59  1  0.49999823  0.71442381  0.90823181  1
  C  C60  1  0.49999474  0.68376824  0.56209403  1
  C  C61  1  0.49999850  0.68509531  0.79300687  1
  C  C62  1  0.49999745  0.71369825  0.59867228  1
  C  C63  1  0.49999802  0.71464302  0.83292763  1
  H  H64  1  0.49999343  0.26189953  0.70566149  1
  H  H65  1  0.50005894  0.26322793  0.94172594  1
  H  H66  1  0.49998743  0.26255318  0.57394047  1
  H  H67  1  0.50002058  0.26200512  0.80997301  1
  H  H68  1  0.50000018  0.73848171  0.70072441  1
  H  H69  1  0.49999663  0.73813806  0.93726148  1
  H  H70  1  0.49999816  0.73724479  0.56909765  1
  H  H71  1  0.49999725  0.73868111  0.80555516  1
  H  H72  1  0.49999344  0.68320082  0.50346716  1
  H  H73  1  0.50000903  0.26744215  0.16032625  1
  H  H74  1  0.49958113  0.35192141  0.41113473  1
  H  H75  1  0.49999961  0.31624649  0.50732971  1
  H  H76  1  0.50009077  0.31687949  0.00727984  1
  H  H77  1  0.50044882  0.33693926  0.28250420  1
  H  H78  1  0.49998961  0.62225991  0.50534191  1
  H  H79  1  0.49998336  0.56107113  0.50598340  1
  H  H80  1  0.49998397  0.49987263  0.50667131  1
  H  H81  1  0.49999227  0.43866469  0.50740206  1
  H  H82  1  0.49913589  0.34975900  0.12836723  1
  H  H83  1  0.49987314  0.39710660  0.38792122  1
  H  H84  1  0.50009891  0.37823039  0.00575716  1
  H  H85  1  0.50075915  0.38190222  0.25808292  1
  H  H86  1  0.50000612  0.37739982  0.50851010  1
  H  H87  1  0.50005917  0.43958640  0.00539569  1
  H  H88  1  0.50003475  0.50088885  0.00484659  1
  H  H89  1  0.50000965  0.56223014  0.00408910  1
  H  H90  1  0.50000345  0.62349694  0.00340882  1
  H  H91  1  0.49999996  0.68437348  0.00415603  1
