# generated using pymatgen
data_H7C18
_symmetry_space_group_name_H-M   'P 1'
_cell_length_a   20.00000000
_cell_length_b   40.19450000
_cell_length_c   18.08351056
_cell_angle_alpha   90.00000000
_cell_angle_beta   90.00000000
_cell_angle_gamma   90.00000000
_symmetry_Int_Tables_number   1
_chemical_formula_structural   H7C18
_chemical_formula_sum   'H28 C72'
_cell_volume   14537.15330491
_cell_formula_units_Z   4
loop_
 _symmetry_equiv_pos_site_id
 _symmetry_equiv_pos_as_xyz
  1  'x, y, z'
loop_
 _atom_site_type_symbol
 _atom_site_label
 _atom_site_symmetry_multiplicity
 _atom_site_fract_x
 _atom_site_fract_y
 _atom_site_fract_z
 _atom_site_occupancy
  C  C0  1  0.49999959  0.28531714  0.66760116  1
  C  C1  1  0.50000044  0.28584508  0.90999948  1
  C  C2  1  0.49999949  0.31469753  0.70934118  1
  C  C3  1  0.50000087  0.31572845  0.94797524  1
  C  C4  1  0.49999954  0.28583465  0.58979536  1
  C  C5  1  0.50000025  0.28532122  0.83219563  1
  C  C6  1  0.49999917  0.34581925  0.67091305  1
  C  C7  1  0.50000103  0.34625771  0.90844956  1
  C  C8  1  0.49999933  0.37653835  0.71050011  1
  C  C9  1  0.50000210  0.37715676  0.94469554  1
  C  C10  1  0.49999921  0.31571644  0.55181198  1
  C  C11  1  0.50000018  0.31469651  0.79044797  1
  C  C12  1  0.49999901  0.34625270  0.59133075  1
  C  C13  1  0.50000049  0.34581959  0.82887043  1
  C  C14  1  0.49999914  0.40744533  0.67328725  1
  C  C15  1  0.50000216  0.40722258  0.90518448  1
  C  C16  1  0.49999949  0.43907206  0.70995262  1
  C  C17  1  0.50000450  0.43755027  0.94335378  1
  C  C18  1  0.49999859  0.37715662  0.55508964  1
  C  C19  1  0.49999998  0.37653823  0.78928237  1
  C  C20  1  0.49999854  0.40722592  0.59459708  1
  C  C21  1  0.50000035  0.40744346  0.82649228  1
  C  C22  1  0.49999949  0.46959153  0.66890437  1
  C  C23  1  0.49999874  0.47093327  0.16645077  1
  C  C24  1  0.50000130  0.46939982  0.91264733  1
  C  C25  1  0.50000112  0.47115533  0.41018246  1
  C  C26  1  0.49999965  0.49997597  0.70965567  1
  C  C27  1  0.50000060  0.49999368  0.20959850  1
  C  C28  1  0.50000033  0.49996936  0.95769485  1
  C  C29  1  0.50000049  0.49998323  0.45772565  1
  C  C30  1  0.49999805  0.43755715  0.55643192  1
  C  C31  1  0.50000002  0.43906995  0.78982258  1
  C  C32  1  0.49999912  0.46941074  0.58713532  1
  C  C33  1  0.49999675  0.47115988  0.08958441  1
  C  C34  1  0.49999998  0.46958728  0.83087375  1
  C  C35  1  0.50000101  0.47091161  0.33331567  1
  C  C36  1  0.49999962  0.53036476  0.66892154  1
  C  C37  1  0.49999906  0.52906014  0.16644468  1
  C  C38  1  0.50000110  0.53053464  0.91262619  1
  C  C39  1  0.50000129  0.52880923  0.41018438  1
  C  C40  1  0.49999959  0.56089063  0.70995344  1
  C  C41  1  0.50000385  0.56238692  0.94330717  1
  C  C42  1  0.49999955  0.49998121  0.54209016  1
  C  C43  1  0.49999846  0.49998539  0.04205131  1
  C  C44  1  0.49999964  0.49997236  0.79012326  1
  C  C45  1  0.50000083  0.49997442  0.29014955  1
  C  C46  1  0.49999916  0.53054834  0.58716016  1
  C  C47  1  0.49999739  0.52881912  0.08957273  1
  C  C48  1  0.49999998  0.53035767  0.83085947  1
  C  C49  1  0.50000109  0.52903120  0.33332150  1
  C  C50  1  0.49999919  0.59252941  0.67330121  1
  C  C51  1  0.50000194  0.59272262  0.90515058  1
  C  C52  1  0.49999940  0.62344231  0.71050926  1
  C  C53  1  0.50000189  0.62279702  0.94464058  1
  C  C54  1  0.49999793  0.56240247  0.55646056  1
  C  C55  1  0.50000008  0.56088435  0.78981359  1
  C  C56  1  0.49999849  0.59274183  0.59460507  1
  C  C57  1  0.50000045  0.59251444  0.82646359  1
  C  C58  1  0.49999911  0.65417316  0.67094241  1
  C  C59  1  0.50000101  0.65370918  0.90843229  1
  C  C60  1  0.49999950  0.68530571  0.70934616  1
  C  C61  1  0.50000080  0.68424717  0.94794623  1
  C  C62  1  0.49999849  0.62282254  0.55512828  1
  C  C63  1  0.50000016  0.62343521  0.78927860  1
  C  C64  1  0.49999888  0.65372584  0.59137501  1
  C  C65  1  0.50000063  0.65416096  0.82885750  1
  C  C66  1  0.49999952  0.71468769  0.66759979  1
  C  C67  1  0.50000042  0.71413976  0.90999752  1
  C  C68  1  0.49999914  0.68425713  0.55185381  1
  C  C69  1  0.50000031  0.68529010  0.79044827  1
  C  C70  1  0.49999950  0.71415507  0.58979542  1
  C  C71  1  0.50000033  0.71467453  0.83218744  1
  H  H72  1  0.50000008  0.26115289  0.69541736  1
  H  H73  1  0.49999996  0.26227743  0.94044947  1
  H  H74  1  0.50000009  0.26226350  0.55934480  1
  H  H75  1  0.49999974  0.26115229  0.80439273  1
  H  H76  1  0.50000009  0.73887813  0.69535710  1
  H  H77  1  0.49999988  0.73770967  0.94045755  1
  H  H78  1  0.50000023  0.73770852  0.55928027  1
  H  H79  1  0.49999973  0.73884210  0.80436790  1
  H  H80  1  0.49999904  0.68367401  0.49123860  1
  H  H81  1  0.49999892  0.31628063  0.49118575  1
  H  H82  1  0.49999854  0.62221245  0.49446546  1
  H  H83  1  0.49999854  0.37778631  0.49442918  1
  H  H84  1  0.49999831  0.55357688  0.19285701  1
  H  H85  1  0.50000317  0.55404832  0.42979652  1
  H  H86  1  0.49999258  0.55404978  0.06992335  1
  H  H87  1  0.50000136  0.55353779  0.30687507  1
  H  H88  1  0.49999570  0.56615046  0.49802202  1
  H  H89  1  0.49999779  0.44642146  0.19288040  1
  H  H90  1  0.50000269  0.44592259  0.42981717  1
  H  H91  1  0.49999615  0.43377570  0.49800153  1
  H  H92  1  0.49999086  0.44592664  0.06996749  1
  H  H93  1  0.50000122  0.44638725  0.30693759  1
  H  H94  1  0.50000126  0.31630334  0.00859714  1
  H  H95  1  0.50000234  0.37778680  0.00535712  1
  H  H96  1  0.50001107  0.43376569  0.00178858  1
  H  H97  1  0.50000949  0.56616334  0.00174023  1
  H  H98  1  0.50000213  0.62215836  0.00529755  1
  H  H99  1  0.50000119  0.68365744  0.00857127  1
