# generated using pymatgen
data_HC5
_symmetry_space_group_name_H-M   'P 1'
_cell_length_a   20.00000000
_cell_length_b   40.19450000
_cell_length_c   17.27359663
_cell_angle_alpha   90.00000000
_cell_angle_beta   90.00000000
_cell_angle_gamma   90.00000000
_symmetry_Int_Tables_number   1
_chemical_formula_structural   HC5
_chemical_formula_sum   'H20 C100'
_cell_volume   13886.07159784
_cell_formula_units_Z   20
loop_
 _symmetry_equiv_pos_site_id
 _symmetry_equiv_pos_as_xyz
  1  'x, y, z'
loop_
 _atom_site_type_symbol
 _atom_site_label
 _atom_site_symmetry_multiplicity
 _atom_site_fract_x
 _atom_site_fract_y
 _atom_site_fract_z
 _atom_site_occupancy
  C  C0  1  0.50000001  0.28367750  0.67158258  1
  C  C1  1  0.49999999  0.28249789  0.90902584  1
  C  C2  1  0.50000000  0.31457567  0.70903972  1
  C  C3  1  0.50000000  0.31193692  0.95021436  1
  C  C4  1  0.50000001  0.28256844  0.59235985  1
  C  C5  1  0.50000000  0.28365259  0.82980092  1
  C  C6  1  0.50000000  0.34516960  0.66714270  1
  C  C7  1  0.50000000  0.34990317  0.17042425  1
  C  C8  1  0.50000000  0.34429209  0.91748284  1
  C  C9  1  0.49999999  0.34934143  0.40939229  1
  C  C10  1  0.50000000  0.37618774  0.70915013  1
  C  C11  1  0.50000000  0.38016864  0.20994348  1
  C  C12  1  0.50000000  0.37592901  0.96040604  1
  C  C13  1  0.50000000  0.37778356  0.45768355  1
  C  C14  1  0.50000001  0.31200385  0.55118534  1
  C  C15  1  0.50000000  0.31456365  0.79237700  1
  C  C16  1  0.50000000  0.34435700  0.58395008  1
  C  C17  1  0.50000000  0.34928666  0.09213544  1
  C  C18  1  0.50000000  0.34514457  0.83430858  1
  C  C19  1  0.50000000  0.34992915  0.33109958  1
  C  C20  1  0.50000000  0.40687919  0.66739338  1
  C  C21  1  0.50000000  0.40987644  0.16696376  1
  C  C22  1  0.50000000  0.40662807  0.91826148  1
  C  C23  1  0.50000000  0.40894815  0.41766382  1
  C  C24  1  0.50000000  0.43769434  0.70922812  1
  C  C25  1  0.50000000  0.44033619  0.20927810  1
  C  C26  1  0.50000000  0.43810721  0.95903238  1
  C  C27  1  0.50000000  0.43924744  0.45987432  1
  C  C28  1  0.50000000  0.37600574  0.54112190  1
  C  C29  1  0.50000000  0.37771919  0.04384439  1
  C  C30  1  0.50000000  0.37617473  0.79235890  1
  C  C31  1  0.50000000  0.38018576  0.29158195  1
  C  C32  1  0.50000000  0.40669096  0.58331852  1
  C  C33  1  0.50000000  0.40888275  0.08389194  1
  C  C34  1  0.50000000  0.40685000  0.83419259  1
  C  C35  1  0.50000000  0.40989888  0.33457745  1
  C  C36  1  0.50000000  0.46877527  0.66775186  1
  C  C37  1  0.50000000  0.47067465  0.16709766  1
  C  C38  1  0.50000000  0.46888764  0.91700836  1
  C  C39  1  0.50000000  0.47008471  0.41789297  1
  C  C40  1  0.50000000  0.49953920  0.70923175  1
  C  C41  1  0.50000000  0.50117853  0.20912999  1
  C  C42  1  0.50000000  0.49982272  0.95855526  1
  C  C43  1  0.50000000  0.50045519  0.45979430  1
  C  C44  1  0.50000000  0.43817472  0.54259357  1
  C  C45  1  0.50000000  0.43918444  0.04175191  1
  C  C46  1  0.50000000  0.43767902  0.79242134  1
  C  C47  1  0.50000000  0.44034281  0.29228647  1
  C  C48  1  0.50000000  0.46894148  0.58469778  1
  C  C49  1  0.50000000  0.47002906  0.08379125  1
  C  C50  1  0.50000000  0.46874876  0.83396089  1
  C  C51  1  0.50000000  0.47067160  0.33457757  1
  C  C52  1  0.50000000  0.53044197  0.66776284  1
  C  C53  1  0.50000000  0.53158222  0.16706897  1
  C  C54  1  0.50000000  0.53049350  0.91689949  1
  C  C55  1  0.50000000  0.53120023  0.41787142  1
  C  C56  1  0.50000000  0.56138577  0.70954272  1
  C  C57  1  0.50000000  0.56244647  0.20913420  1
  C  C58  1  0.50000000  0.56144213  0.95870201  1
  C  C59  1  0.50000000  0.56178020  0.46013221  1
  C  C60  1  0.50000000  0.49989448  0.54321269  1
  C  C61  1  0.50000000  0.50039090  0.04195887  1
  C  C62  1  0.50000000  0.49952919  0.79255911  1
  C  C63  1  0.50000000  0.50117724  0.29261912  1
  C  C64  1  0.50000000  0.53056404  0.58494781  1
  C  C65  1  0.50000000  0.53111442  0.08397732  1
  C  C66  1  0.50000000  0.53040732  0.83410596  1
  C  C67  1  0.50000000  0.53158701  0.33473377  1
  C  C68  1  0.50000000  0.59220313  0.66838676  1
  C  C69  1  0.50000000  0.59294877  0.16744827  1
  C  C70  1  0.50000000  0.59203444  0.91688951  1
  C  C71  1  0.50000000  0.59264976  0.41897864  1
  C  C72  1  0.50000000  0.62301829  0.70994519  1
  C  C73  1  0.50000000  0.62283598  0.21089455  1
  C  C74  1  0.50000000  0.62265778  0.95891211  1
  C  C75  1  0.50000000  0.62212365  0.46237313  1
  C  C76  1  0.50000000  0.56154926  0.54327448  1
  C  C77  1  0.50000000  0.56166886  0.04181411  1
  C  C78  1  0.50000000  0.56135946  0.79241770  1
  C  C79  1  0.50000000  0.56243872  0.29270739  1
  C  C80  1  0.50000000  0.59215186  0.58519228  1
  C  C81  1  0.50000000  0.59250430  0.08306227  1
  C  C82  1  0.50000000  0.59212948  0.83370589  1
  C  C83  1  0.50000000  0.59296387  0.33448013  1
  C  C84  1  0.50000000  0.65413121  0.66810722  1
  C  C85  1  0.50000001  0.65418905  0.91704421  1
  C  C86  1  0.50000000  0.68503805  0.70910660  1
  C  C87  1  0.50000001  0.68481552  0.95647070  1
  C  C88  1  0.50000000  0.62281299  0.54326286  1
  C  C89  1  0.50000000  0.62195885  0.03975640  1
  C  C90  1  0.50000000  0.62299955  0.79238456  1
  C  C91  1  0.50000000  0.62282508  0.29095435  1
  C  C92  1  0.49999999  0.65432972  0.58534667  1
  C  C93  1  0.50000000  0.65407664  0.83436588  1
  C  C94  1  0.50000000  0.71501008  0.66710186  1
  C  C95  1  0.50000001  0.71484578  0.91640521  1
  C  C96  1  0.49999998  0.68503204  0.54628161  1
  C  C97  1  0.50000000  0.68500954  0.79361315  1
  C  C98  1  0.49999998  0.71502019  0.58655755  1
  C  C99  1  0.50000001  0.71492282  0.83585443  1
  H  H100  1  0.50000001  0.26030744  0.70313523  1
  H  H101  1  0.49999999  0.25874981  0.94017268  1
  H  H102  1  0.50000001  0.25887010  0.56104579  1
  H  H103  1  0.49999999  0.26028532  0.79822191  1
  H  H104  1  0.50000001  0.73887807  0.69738621  1
  H  H105  1  0.50000002  0.73840879  0.94833558  1
  H  H106  1  0.49999997  0.73864997  0.55488698  1
  H  H107  1  0.50000001  0.73886184  0.80587126  1
  H  H108  1  0.49999996  0.68592301  0.48306606  1
  H  H109  1  0.50000001  0.32607900  0.20039917  1
  H  H110  1  0.49999999  0.32465724  0.43092061  1
  H  H111  1  0.50000001  0.30651158  0.49079644  1
  H  H112  1  0.49999999  0.32460124  0.07058903  1
  H  H113  1  0.49999999  0.32610095  0.30112786  1
  H  H114  1  0.50000001  0.64693165  0.18144844  1
  H  H115  1  0.50000000  0.64571678  0.43136748  1
  H  H116  1  0.50000001  0.64550795  0.07088152  1
  H  H117  1  0.50000000  0.64689977  0.32046356  1
  H  H118  1  0.50000001  0.30655453  0.01064223  1
  H  H119  1  0.50000001  0.68562910  0.01971789  1
