# generated using pymatgen
data_H3C10
_symmetry_space_group_name_H-M   'P 1'
_cell_length_a   20.00000000
_cell_length_b   40.19450000
_cell_length_c   17.23865971
_cell_angle_alpha   90.00000000
_cell_angle_beta   90.00000000
_cell_angle_gamma   90.00000000
_symmetry_Int_Tables_number   1
_chemical_formula_structural   H3C10
_chemical_formula_sum   'H24 C80'
_cell_volume   13857.98615421
_cell_formula_units_Z   8
loop_
 _symmetry_equiv_pos_site_id
 _symmetry_equiv_pos_as_xyz
  1  'x, y, z'
loop_
 _atom_site_type_symbol
 _atom_site_label
 _atom_site_symmetry_multiplicity
 _atom_site_fract_x
 _atom_site_fract_y
 _atom_site_fract_z
 _atom_site_occupancy
  C  C0  1  0.50000007  0.28508649  0.66701299  1
  C  C1  1  0.49999996  0.28488740  0.91700003  1
  C  C2  1  0.50000006  0.31492107  0.70941338  1
  C  C3  1  0.49999995  0.31480620  0.95746680  1
  C  C4  1  0.49999995  0.28519417  0.58617487  1
  C  C5  1  0.50000003  0.28489481  0.83620442  1
  C  C6  1  0.50000001  0.34587668  0.66851938  1
  C  C7  1  0.49999998  0.34554384  0.91825431  1
  C  C8  1  0.49999999  0.37683176  0.71064193  1
  C  C9  1  0.50000001  0.37791160  0.21191430  1
  C  C10  1  0.50000000  0.37702498  0.96001420  1
  C  C11  1  0.49999999  0.37832371  0.46283003  1
  C  C12  1  0.49999996  0.31520762  0.54605967  1
  C  C13  1  0.50000005  0.31484062  0.79414792  1
  C  C14  1  0.50000001  0.34585103  0.58561618  1
  C  C15  1  0.49999999  0.34571576  0.83532167  1
  C  C16  1  0.49999999  0.40770128  0.66931253  1
  C  C17  1  0.50000001  0.40756496  0.16860908  1
  C  C18  1  0.49999999  0.40757723  0.91787640  1
  C  C19  1  0.50000000  0.40778829  0.41998888  1
  C  C20  1  0.50000000  0.43862574  0.71052736  1
  C  C21  1  0.50000001  0.43837596  0.21018238  1
  C  C22  1  0.49999998  0.43832662  0.95973499  1
  C  C23  1  0.50000001  0.43859040  0.46132465  1
  C  C24  1  0.49999999  0.37734727  0.54405258  1
  C  C25  1  0.50000000  0.37794999  0.04124391  1
  C  C26  1  0.49999998  0.37674842  0.79344066  1
  C  C27  1  0.49999999  0.37793003  0.29234091  1
  C  C28  1  0.49999999  0.40782123  0.58624867  1
  C  C29  1  0.50000001  0.40750072  0.08408693  1
  C  C30  1  0.49999998  0.40757338  0.83482919  1
  C  C31  1  0.50000000  0.40763787  0.33552006  1
  C  C32  1  0.50000003  0.46938147  0.66919703  1
  C  C33  1  0.49999999  0.46915826  0.16843893  1
  C  C34  1  0.49999993  0.46912699  0.91804251  1
  C  C35  1  0.50000002  0.46933828  0.41988449  1
  C  C36  1  0.50000004  0.50040303  0.71058252  1
  C  C37  1  0.50000000  0.49885839  0.21162074  1
  C  C38  1  0.49999992  0.49963044  0.96035681  1
  C  C39  1  0.50000004  0.49890432  0.46285436  1
  C  C40  1  0.50000002  0.43859134  0.54436880  1
  C  C41  1  0.50000000  0.43829435  0.04269524  1
  C  C42  1  0.49999998  0.43853078  0.79366984  1
  C  C43  1  0.50000001  0.43841711  0.29378406  1
  C  C44  1  0.50000003  0.46936879  0.58618951  1
  C  C45  1  0.49999997  0.46906889  0.08406955  1
  C  C46  1  0.49999997  0.46924985  0.83503914  1
  C  C47  1  0.50000002  0.46925063  0.33538808  1
  C  C48  1  0.49999997  0.53120960  0.66935034  1
  C  C49  1  0.50000002  0.53125143  0.91870598  1
  C  C50  1  0.49999993  0.56189934  0.71079137  1
  C  C51  1  0.50000005  0.56151120  0.95734655  1
  C  C52  1  0.50000005  0.49991938  0.54391105  1
  C  C53  1  0.49999994  0.49864409  0.04139315  1
  C  C54  1  0.50000005  0.50030633  0.79361327  1
  C  C55  1  0.50000001  0.49890818  0.29201671  1
  C  C56  1  0.49999998  0.53158841  0.58563111  1
  C  C57  1  0.50000017  0.53103310  0.83501967  1
  C  C58  1  0.49999951  0.59294237  0.67052319  1
  C  C59  1  0.50000055  0.59246866  0.91812975  1
  C  C60  1  0.49999969  0.62365625  0.71129737  1
  C  C61  1  0.50000072  0.62265677  0.95861389  1
  C  C62  1  0.49999987  0.56203480  0.54746644  1
  C  C63  1  0.50000029  0.56178777  0.79390217  1
  C  C64  1  0.49999944  0.59300224  0.58704003  1
  C  C65  1  0.50000062  0.59268402  0.83469977  1
  C  C66  1  0.49999931  0.65445821  0.67030546  1
  C  C67  1  0.50000094  0.65350284  0.91987861  1
  C  C68  1  0.49999972  0.68553440  0.71114014  1
  C  C69  1  0.50000072  0.68396015  0.96155684  1
  C  C70  1  0.49999926  0.62340777  0.54720950  1
  C  C71  1  0.50000036  0.62350748  0.79456249  1
  C  C72  1  0.49999910  0.65416988  0.58669957  1
  C  C73  1  0.50000068  0.65413544  0.83629173  1
  C  C74  1  0.49999987  0.71503301  0.66784495  1
  C  C75  1  0.50000030  0.71396071  0.92216449  1
  C  C76  1  0.49999933  0.68492155  0.54600294  1
  C  C77  1  0.50000020  0.68539594  0.79629804  1
  C  C78  1  0.49999972  0.71471016  0.58625019  1
  C  C79  1  0.50000010  0.71464636  0.84053086  1
  H  H80  1  0.50000016  0.26118293  0.69717735  1
  H  H81  1  0.49999996  0.26125004  0.94868437  1
  H  H82  1  0.49999982  0.26164092  0.55414313  1
  H  H83  1  0.50000007  0.26100479  0.80593775  1
  H  H84  1  0.50000022  0.73911427  0.69744407  1
  H  H85  1  0.50000001  0.73742750  0.95456368  1
  H  H86  1  0.50000001  0.73837973  0.55461654  1
  H  H87  1  0.49999977  0.73892243  0.81181110  1
  H  H88  1  0.49999925  0.68464774  0.48239154  1
  H  H89  1  0.49999992  0.31454203  0.48269391  1
  H  H90  1  0.50000002  0.35382925  0.18244790  1
  H  H91  1  0.50000001  0.35484344  0.43142866  1
  H  H92  1  0.49999999  0.35445954  0.07275868  1
  H  H93  1  0.49999998  0.35380447  0.32162573  1
  H  H94  1  0.49999960  0.62335496  0.48354188  1
  H  H95  1  0.50000002  0.56314141  0.48408432  1
  H  H96  1  0.50000001  0.52294235  0.18217511  1
  H  H97  1  0.50000003  0.52237936  0.43130790  1
  H  H98  1  0.49999997  0.52209512  0.07302473  1
  H  H99  1  0.50000000  0.52303026  0.32132634  1
  H  H100  1  0.50000002  0.31387340  0.02081487  1
  H  H101  1  0.49999978  0.56248747  0.02073556  1
  H  H102  1  0.50000029  0.62234972  0.02222722  1
  H  H103  1  0.50000073  0.68321753  0.02514337  1
