# generated using pymatgen
data_H29C64
_symmetry_space_group_name_H-M   'P 1'
_cell_length_a   20.00000000
_cell_length_b   40.19450000
_cell_length_c   18.03092371
_cell_angle_alpha   90.00000000
_cell_angle_beta   90.00000000
_cell_angle_gamma   90.00000000
_symmetry_Int_Tables_number   1
_chemical_formula_structural   H29C64
_chemical_formula_sum   'H29 C64'
_cell_volume   14494.87925840
_cell_formula_units_Z   1
loop_
 _symmetry_equiv_pos_site_id
 _symmetry_equiv_pos_as_xyz
  1  'x, y, z'
loop_
 _atom_site_type_symbol
 _atom_site_label
 _atom_site_symmetry_multiplicity
 _atom_site_fract_x
 _atom_site_fract_y
 _atom_site_fract_z
 _atom_site_occupancy
  C  C0  1  0.49999985  0.29118535  0.66835207  1
  C  C1  1  0.50000023  0.26457080  0.12746391  1
  C  C2  1  0.50000098  0.29142553  0.91117077  1
  C  C3  1  0.50000061  0.22960913  0.40044924  1
  C  C4  1  0.49999970  0.32066634  0.70984667  1
  C  C5  1  0.50000173  0.32136348  0.94887967  1
  C  C6  1  0.49999965  0.29173491  0.59039274  1
  C  C7  1  0.49999916  0.23464310  0.09818942  1
  C  C8  1  0.50000044  0.29108815  0.83309657  1
  C  C9  1  0.49999926  0.24312711  0.33254189  1
  C  C10  1  0.49999915  0.35175770  0.67111835  1
  C  C11  1  0.50000185  0.35193684  0.90966735  1
  C  C12  1  0.49999953  0.38256298  0.71046218  1
  C  C13  1  0.50000221  0.38241876  0.94781690  1
  C  C14  1  0.49999899  0.32154183  0.55205146  1
  C  C15  1  0.50000043  0.32055046  0.79123338  1
  C  C16  1  0.49999852  0.35225384  0.59112856  1
  C  C17  1  0.50000100  0.35161806  0.82975031  1
  C  C18  1  0.49999875  0.41319251  0.67153085  1
  C  C19  1  0.50000201  0.41288340  0.90980671  1
  C  C20  1  0.49999918  0.44399044  0.71102406  1
  C  C21  1  0.50000279  0.44337760  0.94818435  1
  C  C22  1  0.49999774  0.38293882  0.55328665  1
  C  C23  1  0.50000054  0.38243231  0.79037206  1
  C  C24  1  0.49999753  0.41354004  0.59120019  1
  C  C25  1  0.50000101  0.41290102  0.82957630  1
  C  C26  1  0.49999857  0.47467906  0.67223383  1
  C  C27  1  0.50000236  0.47398260  0.91062019  1
  C  C28  1  0.49999927  0.50529760  0.71185167  1
  C  C29  1  0.50000313  0.50443159  0.94896900  1
  C  C30  1  0.49999670  0.44441970  0.55364221  1
  C  C31  1  0.50000034  0.44380984  0.79063085  1
  C  C32  1  0.49999704  0.47497324  0.59183630  1
  C  C33  1  0.50000083  0.47422441  0.83021823  1
  C  C34  1  0.49999873  0.53619363  0.67324374  1
  C  C35  1  0.50000251  0.53516283  0.91157994  1
  C  C36  1  0.49999950  0.56663898  0.71300534  1
  C  C37  1  0.50000341  0.56551002  0.95007682  1
  C  C38  1  0.49999636  0.50585837  0.55461999  1
  C  C39  1  0.50000023  0.50503091  0.79142041  1
  C  C40  1  0.49999704  0.53647510  0.59283859  1
  C  C41  1  0.50000103  0.53557499  0.83115496  1
  C  C42  1  0.49999870  0.59772334  0.67452050  1
  C  C43  1  0.50000296  0.59630827  0.91273597  1
  C  C44  1  0.49999953  0.62812908  0.71437081  1
  C  C45  1  0.50000344  0.62656277  0.95155728  1
  C  C46  1  0.49999613  0.56728710  0.55565062  1
  C  C47  1  0.50000065  0.56629525  0.79257903  1
  C  C48  1  0.49999691  0.59792576  0.59416507  1
  C  C49  1  0.50000163  0.59694301  0.83251629  1
  C  C50  1  0.49999906  0.65920457  0.67593927  1
  C  C51  1  0.50000258  0.65735282  0.91463847  1
  C  C52  1  0.49999991  0.69004578  0.71564382  1
  C  C53  1  0.50000264  0.68766656  0.95501151  1
  C  C54  1  0.49999629  0.62876334  0.55715251  1
  C  C55  1  0.50000090  0.62771313  0.79431537  1
  C  C56  1  0.49999748  0.65924759  0.59590211  1
  C  C57  1  0.50000144  0.65827853  0.83467560  1
  C  C58  1  0.49999970  0.71982472  0.67509680  1
  C  C59  1  0.50000178  0.71776545  0.91786719  1
  C  C60  1  0.49999711  0.69025658  0.55782549  1
  C  C61  1  0.50000088  0.68959079  0.79706043  1
  C  C62  1  0.49999837  0.71986654  0.59708615  1
  C  C63  1  0.50000097  0.71875765  0.83985905  1
  H  H64  1  0.50000057  0.26705802  0.69644563  1
  H  H65  1  0.50000286  0.26876843  0.18840730  1
  H  H66  1  0.50000057  0.26790420  0.94198488  1
  H  H67  1  0.50000085  0.20253865  0.40860422  1
  H  H68  1  0.50000011  0.26817427  0.55996401  1
  H  H69  1  0.50000009  0.20902433  0.11909945  1
  H  H70  1  0.49999969  0.26685820  0.80552076  1
  H  H71  1  0.49999835  0.22782478  0.28209956  1
  H  H72  1  0.50000066  0.74380253  0.70386177  1
  H  H73  1  0.50000157  0.74112978  0.94915857  1
  H  H74  1  0.49999843  0.74372590  0.56760727  1
  H  H75  1  0.50000008  0.74317650  0.81312694  1
  H  H76  1  0.49999570  0.69030091  0.49700429  1
  H  H77  1  0.49999472  0.62921098  0.49626002  1
  H  H78  1  0.49999527  0.56762468  0.49480942  1
  H  H79  1  0.49999532  0.50613372  0.49383420  1
  H  H80  1  0.49999618  0.44460169  0.49281047  1
  H  H81  1  0.49999764  0.38283266  0.49241560  1
  H  H82  1  0.49999870  0.28760093  0.09411401  1
  H  H83  1  0.50000148  0.24508166  0.45059345  1
  H  H84  1  0.50000189  0.32222087  0.00955263  1
  H  H85  1  0.49999895  0.27019948  0.32455886  1
  H  H86  1  0.49999911  0.32190481  0.49125302  1
  H  H87  1  0.50000230  0.38239998  0.00869455  1
  H  H88  1  0.50000341  0.44298577  0.00898961  1
  H  H89  1  0.50000430  0.50414951  0.00977005  1
  H  H90  1  0.50000416  0.56544734  0.01089851  1
  H  H91  1  0.50000463  0.62626098  0.01235746  1
  H  H92  1  0.50000346  0.68661685  0.01575645  1
