# generated using pymatgen
data_H13C38
_symmetry_space_group_name_H-M   'P 1'
_cell_length_a   20.00000000
_cell_length_b   40.19450000
_cell_length_c   17.52637771
_cell_angle_alpha   90.00000000
_cell_angle_beta   90.00000000
_cell_angle_gamma   90.00000000
_symmetry_Int_Tables_number   1
_chemical_formula_structural   H13C38
_chemical_formula_sum   'H26 C76'
_cell_volume   14089.27977564
_cell_formula_units_Z   2
loop_
 _symmetry_equiv_pos_site_id
 _symmetry_equiv_pos_as_xyz
  1  'x, y, z'
loop_
 _atom_site_type_symbol
 _atom_site_label
 _atom_site_symmetry_multiplicity
 _atom_site_fract_x
 _atom_site_fract_y
 _atom_site_fract_z
 _atom_site_occupancy
  C  C0  1  0.49999997  0.28600089  0.66767830  1
  C  C1  1  0.50000007  0.28568984  0.91162233  1
  C  C2  1  0.49999999  0.31608570  0.70846859  1
  C  C3  1  0.50000006  0.31556428  0.95147536  1
  C  C4  1  0.49999993  0.28571297  0.58840718  1
  C  C5  1  0.50000004  0.28603376  0.83235862  1
  C  C6  1  0.49999998  0.34692423  0.66820105  1
  C  C7  1  0.50000003  0.34637624  0.91341926  1
  C  C8  1  0.50000000  0.37831986  0.70885195  1
  C  C9  1  0.50000000  0.37271265  0.21020669  1
  C  C10  1  0.50000001  0.37752827  0.95614870  1
  C  C11  1  0.49999998  0.37662526  0.46430566  1
  C  C12  1  0.49999993  0.31561640  0.54868046  1
  C  C13  1  0.50000003  0.31612005  0.79157317  1
  C  C14  1  0.49999996  0.34640090  0.58675140  1
  C  C15  1  0.50000002  0.34694677  0.83196734  1
  C  C16  1  0.50000000  0.40881109  0.66722208  1
  C  C17  1  0.50000002  0.40260703  0.16565875  1
  C  C18  1  0.50000000  0.40884399  0.91623387  1
  C  C19  1  0.50000000  0.40510355  0.41854332  1
  C  C20  1  0.50000000  0.43959529  0.70880773  1
  C  C21  1  0.50000003  0.43218982  0.20922854  1
  C  C22  1  0.50000001  0.43906081  0.95950676  1
  C  C23  1  0.50000003  0.43692103  0.45746715  1
  C  C24  1  0.49999999  0.37755302  0.54399617  1
  C  C25  1  0.50000003  0.37661215  0.03583046  1
  C  C26  1  0.50000000  0.37833423  0.79123366  1
  C  C27  1  0.49999999  0.37270468  0.28988139  1
  C  C28  1  0.50000000  0.40886735  0.58386262  1
  C  C29  1  0.50000001  0.40509942  0.08155871  1
  C  C30  1  0.50000000  0.40881448  0.83284944  1
  C  C31  1  0.50000000  0.40259499  0.33444099  1
  C  C32  1  0.49999999  0.47020083  0.66761401  1
  C  C33  1  0.49999995  0.46280319  0.17006244  1
  C  C34  1  0.50000006  0.47063610  0.91571238  1
  C  C35  1  0.50000012  0.46481681  0.40733727  1
  C  C36  1  0.49999999  0.50097159  0.70915627  1
  C  C37  1  0.50000020  0.50211144  0.94858849  1
  C  C38  1  0.49999999  0.43908496  0.54058645  1
  C  C39  1  0.49999997  0.43690996  0.04263084  1
  C  C40  1  0.50000000  0.43959452  0.79126690  1
  C  C41  1  0.50000002  0.43218173  0.29086177  1
  C  C42  1  0.49999995  0.47066060  0.58436012  1
  C  C43  1  0.49999986  0.46481170  0.09274148  1
  C  C44  1  0.50000001  0.47018867  0.83247146  1
  C  C45  1  0.50000007  0.46279700  0.33002174  1
  C  C46  1  0.49999997  0.53238857  0.67116094  1
  C  C47  1  0.50000015  0.53275098  0.90998270  1
  C  C48  1  0.50000000  0.56338234  0.70963736  1
  C  C49  1  0.50000017  0.56271162  0.95089580  1
  C  C50  1  0.49999983  0.50213854  0.55149698  1
  C  C51  1  0.50000002  0.50096386  0.79094261  1
  C  C52  1  0.49999987  0.53277509  0.59011725  1
  C  C53  1  0.50000006  0.53237801  0.82893604  1
  C  C54  1  0.49999995  0.59404107  0.66893354  1
  C  C55  1  0.50000015  0.59381360  0.91357633  1
  C  C56  1  0.49999999  0.62471830  0.70903887  1
  C  C57  1  0.50000017  0.62425562  0.95296754  1
  C  C58  1  0.49999982  0.56274403  0.54921967  1
  C  C59  1  0.50000005  0.56338029  0.79048732  1
  C  C60  1  0.49999985  0.59384133  0.58658201  1
  C  C61  1  0.50000010  0.59402759  0.83123231  1
  C  C62  1  0.49999992  0.65543996  0.66839374  1
  C  C63  1  0.50000016  0.65496060  0.91419278  1
  C  C64  1  0.50000000  0.68656128  0.70822348  1
  C  C65  1  0.50000016  0.68563507  0.95459085  1
  C  C66  1  0.49999977  0.62429775  0.54723755  1
  C  C67  1  0.50000008  0.62471139  0.79116330  1
  C  C68  1  0.49999980  0.65499698  0.58605554  1
  C  C69  1  0.50000011  0.65542158  0.83185208  1
  C  C70  1  0.49999998  0.71597930  0.66530892  1
  C  C71  1  0.50000012  0.71549500  0.91531396  1
  C  C72  1  0.49999974  0.68568349  0.54570994  1
  C  C73  1  0.50000007  0.68655311  0.79206893  1
  C  C74  1  0.49999985  0.71553235  0.58502843  1
  C  C75  1  0.50000008  0.71596423  0.83503091  1
  H  H76  1  0.49999998  0.26225824  0.69789089  1
  H  H77  1  0.50000008  0.26200984  0.94257523  1
  H  H78  1  0.49999992  0.26205319  0.55738709  1
  H  H79  1  0.50000003  0.26227500  0.80216971  1
  H  H80  1  0.50000008  0.74013194  0.69405320  1
  H  H81  1  0.50000010  0.73908948  0.94671152  1
  H  H82  1  0.49999985  0.73912696  0.55365209  1
  H  H83  1  0.50000004  0.74012816  0.80633481  1
  H  H84  1  0.49999964  0.68523164  0.48316929  1
  H  H85  1  0.49999990  0.31447172  0.48647265  1
  H  H86  1  0.50000000  0.34839937  0.18184753  1
  H  H87  1  0.49999998  0.35255933  0.43569363  1
  H  H88  1  0.50000005  0.35256448  0.06446012  1
  H  H89  1  0.49999998  0.34838687  0.31821728  1
  H  H90  1  0.49999968  0.62420311  0.48466513  1
  H  H91  1  0.49999980  0.56202728  0.48662276  1
  H  H92  1  0.49999989  0.48630019  0.20096796  1
  H  H93  1  0.50000030  0.49013569  0.42601169  1
  H  H94  1  0.49999961  0.49012704  0.07406269  1
  H  H95  1  0.50000013  0.48628675  0.29907362  1
  H  H96  1  0.49999966  0.50618301  0.49128234  1
  H  H97  1  0.50000008  0.31439780  0.01366416  1
  H  H98  1  0.50000041  0.50614612  0.00880555  1
  H  H99  1  0.50000017  0.56196186  0.01347647  1
  H  H100  1  0.50000021  0.62413867  0.01553764  1
  H  H101  1  0.50000018  0.68517447  0.01713668  1
