# generated using pymatgen
data_H7C17
_symmetry_space_group_name_H-M   'P 1'
_cell_length_a   20.00000000
_cell_length_b   40.19450000
_cell_length_c   17.88944095
_cell_angle_alpha   90.00000000
_cell_angle_beta   90.00000000
_cell_angle_gamma   90.00000000
_symmetry_Int_Tables_number   1
_chemical_formula_structural   H7C17
_chemical_formula_sum   'H28 C68'
_cell_volume   14381.14268481
_cell_formula_units_Z   4
loop_
 _symmetry_equiv_pos_site_id
 _symmetry_equiv_pos_as_xyz
  1  'x, y, z'
loop_
 _atom_site_type_symbol
 _atom_site_label
 _atom_site_symmetry_multiplicity
 _atom_site_fract_x
 _atom_site_fract_y
 _atom_site_fract_z
 _atom_site_occupancy
  C  C0  1  0.49999999  0.28845961  0.66966842  1
  C  C1  1  0.50000006  0.28773522  0.91018935  1
  C  C2  1  0.50000005  0.31857960  0.71141567  1
  C  C3  1  0.50000005  0.29795808  0.21301910  1
  C  C4  1  0.49999990  0.31706421  0.95481605  1
  C  C5  1  0.50000004  0.31231525  0.47024339  1
  C  C6  1  0.50000001  0.28839472  0.59284245  1
  C  C7  1  0.50000006  0.28809329  0.83334973  1
  C  C8  1  0.50000005  0.34913040  0.67111929  1
  C  C9  1  0.49999952  0.32706222  0.17043313  1
  C  C10  1  0.49999998  0.34883711  0.91435167  1
  C  C11  1  0.50000012  0.33442076  0.41039718  1
  C  C12  1  0.49999993  0.37979757  0.71191034  1
  C  C13  1  0.50000032  0.37973169  0.94978499  1
  C  C14  1  0.50000012  0.31787614  0.54870983  1
  C  C15  1  0.49999985  0.31123975  0.03322180  1
  C  C16  1  0.50000000  0.31837733  0.79213895  1
  C  C17  1  0.50000016  0.29837231  0.29208385  1
  C  C18  1  0.50000010  0.34950317  0.58966429  1
  C  C19  1  0.49999927  0.33325646  0.09322212  1
  C  C20  1  0.50000002  0.34877718  0.83286930  1
  C  C21  1  0.50000010  0.32787317  0.33334212  1
  C  C22  1  0.49999944  0.41076223  0.67376233  1
  C  C23  1  0.50000081  0.41048006  0.91161399  1
  C  C24  1  0.49999938  0.44161800  0.71294120  1
  C  C25  1  0.50000145  0.44076201  0.95087524  1
  C  C26  1  0.49999992  0.38052771  0.55474375  1
  C  C27  1  0.50000014  0.37961603  0.79260209  1
  C  C28  1  0.49999930  0.41113448  0.59350418  1
  C  C29  1  0.50000054  0.41042163  0.83136037  1
  C  C30  1  0.49999857  0.47224133  0.67355817  1
  C  C31  1  0.50000194  0.47174273  0.91377141  1
  C  C32  1  0.49999896  0.50289882  0.71341804  1
  C  C33  1  0.50000224  0.50226261  0.95233189  1
  C  C34  1  0.49999867  0.44157321  0.55485967  1
  C  C35  1  0.50000045  0.44144767  0.79285464  1
  C  C36  1  0.49999815  0.47237967  0.59265077  1
  C  C37  1  0.50000128  0.47191426  0.83286696  1
  C  C38  1  0.49999817  0.53364488  0.67414641  1
  C  C39  1  0.50000222  0.53310568  0.91455118  1
  C  C40  1  0.49999880  0.56420333  0.71400168  1
  C  C41  1  0.50000212  0.56363718  0.95295856  1
  C  C42  1  0.49999801  0.50303229  0.55466204  1
  C  C43  1  0.50000067  0.50274109  0.79363602  1
  C  C44  1  0.49999784  0.53370806  0.59308956  1
  C  C45  1  0.50000140  0.53334655  0.83350431  1
  C  C46  1  0.49999821  0.59511077  0.67472810  1
  C  C47  1  0.50000188  0.59446219  0.91507899  1
  C  C48  1  0.49999886  0.62564904  0.71438113  1
  C  C49  1  0.50000183  0.62495027  0.95362651  1
  C  C50  1  0.49999827  0.56438008  0.55528591  1
  C  C51  1  0.50000053  0.56405208  0.79424704  1
  C  C52  1  0.49999812  0.59505122  0.59376966  1
  C  C53  1  0.50000112  0.59481558  0.83410052  1
  C  C54  1  0.49999864  0.65652894  0.67486520  1
  C  C55  1  0.50000148  0.65567513  0.91573516  1
  C  C56  1  0.49999924  0.68752546  0.71418527  1
  C  C57  1  0.50000137  0.68629773  0.95547654  1
  C  C58  1  0.49999863  0.62567143  0.55578156  1
  C  C59  1  0.50000026  0.62549160  0.79497709  1
  C  C60  1  0.49999860  0.65625964  0.59418921  1
  C  C61  1  0.50000067  0.65621991  0.83506220  1
  C  C62  1  0.49999957  0.71706720  0.67242366  1
  C  C63  1  0.50000049  0.71622119  0.91721234  1
  C  C64  1  0.49999917  0.68700528  0.55495951  1
  C  C65  1  0.49999995  0.68736317  0.79630895  1
  C  C66  1  0.49999967  0.71677973  0.59379584  1
  C  C67  1  0.49999995  0.71675553  0.83859337  1
  H  H68  1  0.49999986  0.26451192  0.69854866  1
  H  H69  1  0.50000012  0.26370871  0.93926794  1
  H  H70  1  0.49999994  0.26448793  0.56330042  1
  H  H71  1  0.50000011  0.26419960  0.80425965  1
  H  H72  1  0.50000004  0.74116280  0.70082283  1
  H  H73  1  0.50000000  0.73977891  0.94811162  1
  H  H74  1  0.50000044  0.74043825  0.56332827  1
  H  H75  1  0.49999934  0.74094681  0.81064426  1
  H  H76  1  0.49999938  0.68667470  0.49367788  1
  H  H77  1  0.50000026  0.27365889  0.18500831  1
  H  H78  1  0.49999985  0.28576981  0.45520028  1
  H  H79  1  0.50000036  0.28465960  0.04782144  1
  H  H80  1  0.50000031  0.27435062  0.32127625  1
  H  H81  1  0.49999959  0.62575246  0.49444663  1
  H  H82  1  0.49999917  0.56455214  0.49397403  1
  H  H83  1  0.49999871  0.50313374  0.49333080  1
  H  H84  1  0.49999873  0.44141619  0.49352298  1
  H  H85  1  0.49999912  0.35022789  0.20267679  1
  H  H86  1  0.50000018  0.36104588  0.42138795  1
  H  H87  1  0.49999845  0.35983235  0.08191883  1
  H  H88  1  0.50000010  0.35082372  0.30032232  1
  H  H89  1  0.50000023  0.38260604  0.49433113  1
  H  H90  1  0.50000044  0.38163592  0.01022783  1
  H  H91  1  0.50000138  0.44031790  0.01221057  1
  H  H92  1  0.50000188  0.50212103  0.01364362  1
  H  H93  1  0.50000178  0.56355659  0.01427776  1
  H  H94  1  0.50000169  0.62481357  0.01497254  1
  H  H95  1  0.50000182  0.68576833  0.01673819  1
