# generated using pymatgen
data_H7C16
_symmetry_space_group_name_H-M   'P 1'
_cell_length_a   20.00000000
_cell_length_b   40.19450000
_cell_length_c   18.20648119
_cell_angle_alpha   90.00000000
_cell_angle_beta   90.00000000
_cell_angle_gamma   90.00000000
_symmetry_Int_Tables_number   1
_chemical_formula_structural   H7C16
_chemical_formula_sum   'H28 C64'
_cell_volume   14636.00816409
_cell_formula_units_Z   4
loop_
 _symmetry_equiv_pos_site_id
 _symmetry_equiv_pos_as_xyz
  1  'x, y, z'
loop_
 _atom_site_type_symbol
 _atom_site_label
 _atom_site_symmetry_multiplicity
 _atom_site_fract_x
 _atom_site_fract_y
 _atom_site_fract_z
 _atom_site_occupancy
  C  C0  1  0.49999983  0.28516135  0.67077690  1
  C  C1  1  0.49999915  0.28541932  0.91125640  1
  C  C2  1  0.49999971  0.31450524  0.71248581  1
  C  C3  1  0.49999911  0.31545182  0.94863541  1
  C  C4  1  0.50000052  0.28565247  0.59369184  1
  C  C5  1  0.49999937  0.28500333  0.83416128  1
  C  C6  1  0.49999995  0.34571047  0.67480799  1
  C  C7  1  0.49999919  0.34577596  0.90919297  1
  C  C8  1  0.49999984  0.37683214  0.71325704  1
  C  C9  1  0.49999901  0.37660551  0.94647289  1
  C  C10  1  0.50000103  0.31573769  0.55654731  1
  C  C11  1  0.49999951  0.31444151  0.79276822  1
  C  C12  1  0.50000073  0.34598411  0.59628277  1
  C  C13  1  0.49999950  0.34560913  0.83065007  1
  C  C14  1  0.50000004  0.40748708  0.67435067  1
  C  C15  1  0.49999939  0.40695446  0.91076723  1
  C  C16  1  0.49999973  0.43861561  0.71389065  1
  C  C17  1  0.49999990  0.43846692  0.22148909  1
  C  C18  1  0.50000008  0.43838265  0.95319848  1
  C  C19  1  0.49999837  0.43869201  0.47890027  1
  C  C20  1  0.50000118  0.37689140  0.55934821  1
  C  C21  1  0.49999961  0.37679380  0.79242604  1
  C  C22  1  0.50000052  0.40716676  0.59532765  1
  C  C23  1  0.49999942  0.40739958  0.83168466  1
  C  C24  1  0.49999998  0.46942573  0.67453841  1
  C  C25  1  0.49999919  0.46991143  0.91131783  1
  C  C26  1  0.49999991  0.50013193  0.71387530  1
  C  C27  1  0.49999839  0.50018273  0.94718866  1
  C  C28  1  0.49999997  0.43867894  0.55336773  1
  C  C29  1  0.50000214  0.43826940  0.02775502  1
  C  C30  1  0.49999951  0.43856977  0.79238188  1
  C  C31  1  0.49999998  0.43829430  0.29500392  1
  C  C32  1  0.50000057  0.47016648  0.59528191  1
  C  C33  1  0.49999948  0.46931405  0.83200932  1
  C  C34  1  0.50000006  0.53118128  0.67583677  1
  C  C35  1  0.49999874  0.53118335  0.90991126  1
  C  C36  1  0.49999979  0.56194136  0.71421896  1
  C  C37  1  0.49999912  0.56136265  0.94794447  1
  C  C38  1  0.50000159  0.50047582  0.55954471  1
  C  C39  1  0.49999958  0.50007302  0.79276822  1
  C  C40  1  0.50000092  0.53145898  0.59685110  1
  C  C41  1  0.49999940  0.53106352  0.83095678  1
  C  C42  1  0.49999969  0.59273515  0.67536569  1
  C  C43  1  0.50000008  0.59231811  0.91098326  1
  C  C44  1  0.49999976  0.62342596  0.71414043  1
  C  C45  1  0.50000121  0.62272740  0.94883491  1
  C  C46  1  0.50000085  0.56166948  0.55881753  1
  C  C47  1  0.49999969  0.56187630  0.79273269  1
  C  C48  1  0.49999981  0.59259523  0.59596900  1
  C  C49  1  0.50000000  0.59261120  0.83168330  1
  C  C50  1  0.49999940  0.65417181  0.67518110  1
  C  C51  1  0.50000156  0.65343666  0.91167203  1
  C  C52  1  0.49999968  0.68532356  0.71357456  1
  C  C53  1  0.50000276  0.68396683  0.95099450  1
  C  C54  1  0.49999906  0.62309683  0.55839786  1
  C  C55  1  0.50000017  0.62336349  0.79320070  1
  C  C56  1  0.49999864  0.65373443  0.59594439  1
  C  C57  1  0.50000062  0.65402591  0.83243596  1
  C  C58  1  0.49999913  0.71472464  0.67216130  1
  C  C59  1  0.50000234  0.71389820  0.91354404  1
  C  C60  1  0.49999786  0.68438335  0.55704495  1
  C  C61  1  0.50000040  0.68524186  0.79435543  1
  C  C62  1  0.49999816  0.71423082  0.59483031  1
  C  C63  1  0.50000102  0.71451796  0.83620010  1
  H  H64  1  0.49999937  0.26097641  0.69821274  1
  H  H65  1  0.49999937  0.26190811  0.94176482  1
  H  H66  1  0.50000048  0.26218712  0.56299334  1
  H  H67  1  0.49999972  0.26083786  0.80652634  1
  H  H68  1  0.49999937  0.73893020  0.69968311  1
  H  H69  1  0.50000289  0.73740168  0.94411189  1
  H  H70  1  0.49999790  0.73781343  0.56459098  1
  H  H71  1  0.50000071  0.73878319  0.80900183  1
  H  H72  1  0.49999750  0.68388785  0.49682843  1
  H  H73  1  0.50000145  0.31661210  0.49635994  1
  H  H74  1  0.49999903  0.62321990  0.49813887  1
  H  H75  1  0.50000216  0.37588892  0.49937395  1
  H  H76  1  0.49999975  0.41534455  0.18958377  1
  H  H77  1  0.49999777  0.41582126  0.44682090  1
  H  H78  1  0.50000295  0.41523625  0.05942025  1
  H  H79  1  0.49999991  0.41507502  0.32653153  1
  H  H80  1  0.50000115  0.56153926  0.49855336  1
  H  H81  1  0.50000293  0.50151490  0.49952219  1
  H  H82  1  0.49999989  0.46175605  0.19017167  1
  H  H83  1  0.49999764  0.46159637  0.44688022  1
  H  H84  1  0.50000290  0.46115675  0.06001292  1
  H  H85  1  0.50000003  0.46136381  0.32704677  1
  H  H86  1  0.49999908  0.31623219  0.00884084  1
  H  H87  1  0.49999841  0.37547474  0.00644170  1
  H  H88  1  0.49999756  0.50111375  0.00722538  1
  H  H89  1  0.49999928  0.56111264  0.00814608  1
  H  H90  1  0.50000202  0.62266505  0.00907458  1
  H  H91  1  0.50000393  0.68328073  0.01120272  1
