# generated using pymatgen
data_H2C7
_symmetry_space_group_name_H-M   'P 1'
_cell_length_a   20.00000000
_cell_length_b   40.19450000
_cell_length_c   17.40848357
_cell_angle_alpha   90.00000000
_cell_angle_beta   90.00000000
_cell_angle_gamma   90.00000000
_symmetry_Int_Tables_number   1
_chemical_formula_structural   H2C7
_chemical_formula_sum   'H24 C84'
_cell_volume   13994.50585950
_cell_formula_units_Z   12
loop_
 _symmetry_equiv_pos_site_id
 _symmetry_equiv_pos_as_xyz
  1  'x, y, z'
loop_
 _atom_site_type_symbol
 _atom_site_label
 _atom_site_symmetry_multiplicity
 _atom_site_fract_x
 _atom_site_fract_y
 _atom_site_fract_z
 _atom_site_occupancy
  C  C0  1  0.50000005  0.28419397  0.67242342  1
  C  C1  1  0.49999999  0.28302310  0.90932279  1
  C  C2  1  0.50000001  0.31497873  0.70992149  1
  C  C3  1  0.50000012  0.31241468  0.95026048  1
  C  C4  1  0.50000005  0.28318905  0.59354036  1
  C  C5  1  0.49999990  0.28410729  0.83043133  1
  C  C6  1  0.50000001  0.34563650  0.66812909  1
  C  C7  1  0.49999998  0.35054426  0.17141582  1
  C  C8  1  0.50000003  0.34474894  0.91767211  1
  C  C9  1  0.49999997  0.34992076  0.41015628  1
  C  C10  1  0.49999999  0.37653040  0.70982391  1
  C  C11  1  0.50000004  0.38079944  0.21066693  1
  C  C12  1  0.50000001  0.37610001  0.96100828  1
  C  C13  1  0.49999999  0.37817902  0.45837067  1
  C  C14  1  0.50000002  0.31257301  0.55261273  1
  C  C15  1  0.49999997  0.31491639  0.79301499  1
  C  C16  1  0.50000001  0.34492981  0.58523951  1
  C  C17  1  0.49999989  0.34953161  0.09329775  1
  C  C18  1  0.49999998  0.34554874  0.83482398  1
  C  C19  1  0.50000000  0.35077068  0.33208533  1
  C  C20  1  0.49999999  0.40700536  0.66796822  1
  C  C21  1  0.50000001  0.41038278  0.16764395  1
  C  C22  1  0.50000001  0.40660399  0.91885765  1
  C  C23  1  0.50000001  0.40937696  0.41843716  1
  C  C24  1  0.50000000  0.43785225  0.71000711  1
  C  C25  1  0.50000000  0.44117457  0.20982371  1
  C  C26  1  0.50000000  0.43807091  0.95959101  1
  C  C27  1  0.50000000  0.43960772  0.46099623  1
  C  C28  1  0.50000000  0.37633272  0.54209961  1
  C  C29  1  0.49999998  0.37777961  0.04484658  1
  C  C30  1  0.49999999  0.37646142  0.79315716  1
  C  C31  1  0.50000003  0.38094600  0.29262863  1
  C  C32  1  0.49999999  0.40683512  0.58422893  1
  C  C33  1  0.50000001  0.40899480  0.08476571  1
  C  C34  1  0.50000000  0.40687028  0.83513516  1
  C  C35  1  0.50000002  0.41059977  0.33554458  1
  C  C36  1  0.49999999  0.46865867  0.66931217  1
  C  C37  1  0.49999999  0.47137315  0.16762834  1
  C  C38  1  0.50000002  0.46849978  0.91712077  1
  C  C39  1  0.50000000  0.47062548  0.41995443  1
  C  C40  1  0.50000001  0.49949726  0.71064441  1
  C  C41  1  0.50000000  0.50115559  0.21112936  1
  C  C42  1  0.50000004  0.49917492  0.95841793  1
  C  C43  1  0.49999999  0.49956143  0.46429478  1
  C  C44  1  0.49999999  0.43844763  0.54364574  1
  C  C45  1  0.50000001  0.43919869  0.04215544  1
  C  C46  1  0.50000001  0.43776415  0.79317919  1
  C  C47  1  0.50000001  0.44131634  0.29323650  1
  C  C48  1  0.49999998  0.46888250  0.58628074  1
  C  C49  1  0.49999999  0.47020939  0.08308518  1
  C  C50  1  0.50000003  0.46848081  0.83419747  1
  C  C51  1  0.50000001  0.47162880  0.33516474  1
  C  C52  1  0.50000001  0.53049486  0.66997861  1
  C  C53  1  0.50000007  0.53068676  0.91678685  1
  C  C54  1  0.50000000  0.56115918  0.71107739  1
  C  C55  1  0.50000010  0.56096966  0.95505969  1
  C  C56  1  0.49999996  0.49965466  0.54496945  1
  C  C57  1  0.49999999  0.49913840  0.03895110  1
  C  C58  1  0.50000003  0.49941324  0.79322648  1
  C  C59  1  0.50000002  0.50128575  0.29109305  1
  C  C60  1  0.49999996  0.53112151  0.58708152  1
  C  C61  1  0.50000004  0.53031310  0.83405289  1
  C  C62  1  0.50000003  0.59227566  0.67138238  1
  C  C63  1  0.50000003  0.59189106  0.91632118  1
  C  C64  1  0.50000007  0.62299905  0.71167554  1
  C  C65  1  0.50000010  0.62206199  0.95656953  1
  C  C66  1  0.49999992  0.56157991  0.54948225  1
  C  C67  1  0.50000002  0.56105239  0.79341412  1
  C  C68  1  0.50000001  0.59244621  0.58879574  1
  C  C69  1  0.50000003  0.59200403  0.83375470  1
  C  C70  1  0.50000003  0.65377662  0.67108021  1
  C  C71  1  0.50000011  0.65289489  0.91824011  1
  C  C72  1  0.50000018  0.68484724  0.71152212  1
  C  C73  1  0.50000014  0.68342093  0.95932882  1
  C  C74  1  0.49999978  0.62282702  0.54926477  1
  C  C75  1  0.50000009  0.62286014  0.79413288  1
  C  C76  1  0.49999975  0.65354644  0.58828656  1
  C  C77  1  0.50000015  0.65345992  0.83546000  1
  C  C78  1  0.50000013  0.71433029  0.66873577  1
  C  C79  1  0.50000009  0.71335560  0.92015245  1
  C  C80  1  0.49999954  0.68429399  0.54800461  1
  C  C81  1  0.50000022  0.68469903  0.79578877  1
  C  C82  1  0.49999979  0.71405454  0.58793683  1
  C  C83  1  0.50000010  0.71398131  0.83935406  1
  H  H84  1  0.50000007  0.26074490  0.70358618  1
  H  H85  1  0.50000009  0.25930375  0.94032073  1
  H  H86  1  0.50000005  0.25949437  0.56246443  1
  H  H87  1  0.49999979  0.26065440  0.79926779  1
  H  H88  1  0.50000023  0.73837950  0.69812464  1
  H  H89  1  0.50000007  0.73688855  0.95192750  1
  H  H90  1  0.49999980  0.73775240  0.55681481  1
  H  H91  1  0.50000001  0.73819976  0.81072314  1
  H  H92  1  0.49999936  0.68400776  0.48505308  1
  H  H93  1  0.49999995  0.32674970  0.20145164  1
  H  H94  1  0.49999995  0.32511215  0.43125794  1
  H  H95  1  0.50000003  0.30754144  0.49243974  1
  H  H96  1  0.49999966  0.32459401  0.07272735  1
  H  H97  1  0.49999999  0.32691866  0.30238756  1
  H  H98  1  0.49999955  0.62272762  0.48625240  1
  H  H99  1  0.49999965  0.56287055  0.48674575  1
  H  H100  1  0.49999998  0.52525155  0.18186624  1
  H  H101  1  0.50000001  0.52335872  0.43431727  1
  H  H102  1  0.49999997  0.52291349  0.06897040  1
  H  H103  1  0.50000003  0.52552557  0.31966670  1
  H  H104  1  0.50000041  0.30752194  0.01048281  1
  H  H105  1  0.50000024  0.56200240  0.01780376  1
  H  H106  1  0.50000022  0.62168277  0.01957123  1
  H  H107  1  0.50000028  0.68277769  0.02227233  1
