# generated using pymatgen
data_H11C48
_symmetry_space_group_name_H-M   'P 1'
_cell_length_a   20.00000000
_cell_length_b   40.19450000
_cell_length_c   17.33120480
_cell_angle_alpha   90.00000000
_cell_angle_beta   90.00000000
_cell_angle_gamma   90.00000000
_symmetry_Int_Tables_number   1
_chemical_formula_structural   H11C48
_chemical_formula_sum   'H22 C96'
_cell_volume   13932.38222704
_cell_formula_units_Z   2
loop_
 _symmetry_equiv_pos_site_id
 _symmetry_equiv_pos_as_xyz
  1  'x, y, z'
loop_
 _atom_site_type_symbol
 _atom_site_label
 _atom_site_symmetry_multiplicity
 _atom_site_fract_x
 _atom_site_fract_y
 _atom_site_fract_z
 _atom_site_occupancy
  C  C0  1  0.50000000  0.28606618  0.66546952  1
  C  C1  1  0.50000000  0.28471889  0.16414294  1
  C  C2  1  0.50000000  0.28579785  0.91421387  1
  C  C3  1  0.49999999  0.28508085  0.41568222  1
  C  C4  1  0.50000000  0.31602801  0.70818838  1
  C  C5  1  0.50000000  0.31441534  0.20802021  1
  C  C6  1  0.50000000  0.31553975  0.95761892  1
  C  C7  1  0.49999999  0.31508311  0.45865243  1
  C  C8  1  0.50000000  0.28583971  0.58589529  1
  C  C9  1  0.50000000  0.28504454  0.08440679  1
  C  C10  1  0.50000000  0.28603934  0.83457720  1
  C  C11  1  0.49999999  0.28473010  0.33592327  1
  C  C12  1  0.50000000  0.34665295  0.66673733  1
  C  C13  1  0.50000000  0.34505828  0.16650912  1
  C  C14  1  0.50000000  0.34635516  0.91644076  1
  C  C15  1  0.49999999  0.34550885  0.41689371  1
  C  C16  1  0.50000000  0.37762317  0.70851154  1
  C  C17  1  0.50000000  0.37563714  0.20858122  1
  C  C18  1  0.50000000  0.37709551  0.95828999  1
  C  C19  1  0.49999999  0.37644282  0.45883045  1
  C  C20  1  0.50000000  0.31556307  0.54245913  1
  C  C21  1  0.50000000  0.31505556  0.04142319  1
  C  C22  1  0.50000000  0.31602688  0.79192554  1
  C  C23  1  0.49999999  0.31442017  0.29203203  1
  C  C24  1  0.50000000  0.34636249  0.58367125  1
  C  C25  1  0.50000000  0.34549739  0.08319079  1
  C  C26  1  0.50000000  0.34665063  0.83339104  1
  C  C27  1  0.49999999  0.34505605  0.33357453  1
  C  C28  1  0.50000000  0.40822076  0.66684973  1
  C  C29  1  0.50000000  0.40607723  0.16655643  1
  C  C30  1  0.50000000  0.40796724  0.91662663  1
  C  C31  1  0.49999999  0.40676639  0.41699934  1
  C  C32  1  0.49999999  0.43927699  0.70819870  1
  C  C33  1  0.50000000  0.43627843  0.20854361  1
  C  C34  1  0.50000001  0.43855514  0.95848659  1
  C  C35  1  0.49999999  0.43754049  0.45888029  1
  C  C36  1  0.50000000  0.37709078  0.54179806  1
  C  C37  1  0.50000000  0.37643359  0.04123585  1
  C  C38  1  0.50000000  0.37762607  0.79166298  1
  C  C39  1  0.50000000  0.37564292  0.29149758  1
  C  C40  1  0.50000000  0.40794512  0.58348388  1
  C  C41  1  0.50000000  0.40674773  0.08312361  1
  C  C42  1  0.50000000  0.40822733  0.83322878  1
  C  C43  1  0.49999999  0.40609240  0.33355881  1
  C  C44  1  0.49999999  0.46995664  0.66637643  1
  C  C45  1  0.50000001  0.46674083  0.16622487  1
  C  C46  1  0.50000001  0.46996551  0.91763109  1
  C  C47  1  0.49999999  0.46790433  0.41681206  1
  C  C48  1  0.50000000  0.50073079  0.70848564  1
  C  C49  1  0.50000000  0.49633108  0.20930399  1
  C  C50  1  0.50000001  0.50052648  0.95964992  1
  C  C51  1  0.49999999  0.49912903  0.45695138  1
  C  C52  1  0.49999999  0.43857640  0.54168915  1
  C  C53  1  0.50000001  0.43752205  0.04125935  1
  C  C54  1  0.50000000  0.43927375  0.79188600  1
  C  C55  1  0.50000000  0.43629086  0.29157341  1
  C  C56  1  0.49999999  0.47003025  0.58253975  1
  C  C57  1  0.50000001  0.46788817  0.08335018  1
  C  C58  1  0.50000000  0.46992294  0.83377228  1
  C  C59  1  0.49999999  0.46674370  0.33392896  1
  C  C60  1  0.50000000  0.53153508  0.66755253  1
  C  C61  1  0.49999999  0.52651628  0.17006452  1
  C  C62  1  0.50000001  0.53190316  0.91621300  1
  C  C63  1  0.50000001  0.52745763  0.40828747  1
  C  C64  1  0.50000002  0.56235779  0.70905732  1
  C  C65  1  0.50000003  0.56346855  0.94919162  1
  C  C66  1  0.49999997  0.50057283  0.54051418  1
  C  C67  1  0.50000001  0.49910700  0.04321893  1
  C  C68  1  0.50000000  0.50071289  0.79169199  1
  C  C69  1  0.50000000  0.49633780  0.29088349  1
  C  C70  1  0.49999997  0.53196487  0.58399687  1
  C  C71  1  0.49999999  0.52743859  0.09187759  1
  C  C72  1  0.50000001  0.53150489  0.83266817  1
  C  C73  1  0.50000002  0.52652642  0.33010922  1
  C  C74  1  0.50000003  0.59393439  0.67102466  1
  C  C75  1  0.50000001  0.59406476  0.91085213  1
  C  C76  1  0.50000006  0.62498357  0.70932337  1
  C  C77  1  0.49999999  0.62387461  0.95288668  1
  C  C78  1  0.49999995  0.56353826  0.55106009  1
  C  C79  1  0.50000002  0.56234112  0.79121985  1
  C  C80  1  0.50000000  0.59411851  0.58949592  1
  C  C81  1  0.50000003  0.59390365  0.82931386  1
  C  C82  1  0.50000007  0.65558467  0.66792369  1
  C  C83  1  0.50000000  0.65488816  0.91558378  1
  C  C84  1  0.50000008  0.68679051  0.70793331  1
  C  C85  1  0.49999997  0.68527115  0.95727953  1
  C  C86  1  0.50000000  0.62395951  0.54755318  1
  C  C87  1  0.50000006  0.62496942  0.79109985  1
  C  C88  1  0.50000002  0.65496140  0.58493399  1
  C  C89  1  0.50000005  0.65555070  0.83258281  1
  C  C90  1  0.50000005  0.71604394  0.66393621  1
  C  C91  1  0.50000000  0.71521875  0.91798466  1
  C  C92  1  0.49999995  0.68536862  0.54331331  1
  C  C93  1  0.50000007  0.68677482  0.79265816  1
  C  C94  1  0.49999997  0.71529772  0.58270042  1
  C  C95  1  0.50000006  0.71600188  0.83675090  1
  H  H96  1  0.50000001  0.26210616  0.69523674  1
  H  H97  1  0.50000000  0.26061144  0.19332742  1
  H  H98  1  0.50000000  0.26175786  0.94368876  1
  H  H99  1  0.49999999  0.26113626  0.44549521  1
  H  H100  1  0.50000001  0.26180855  0.55640605  1
  H  H101  1  0.50000000  0.26109765  0.05454097  1
  H  H102  1  0.50000000  0.26209830  0.80474642  1
  H  H103  1  0.49999999  0.26060688  0.30681203  1
  H  H104  1  0.50000008  0.74033602  0.69241875  1
  H  H105  1  0.49999996  0.73869277  0.95011332  1
  H  H106  1  0.49999991  0.73879198  0.55064455  1
  H  H107  1  0.50000009  0.74030318  0.80831295  1
  H  H108  1  0.49999985  0.68460587  0.48004508  1
  H  H109  1  0.49999998  0.62313431  0.48426780  1
  H  H110  1  0.49999996  0.55028513  0.20010597  1
  H  H111  1  0.50000005  0.55254391  0.42767249  1
  H  H112  1  0.49999996  0.55252070  0.07256813  1
  H  H113  1  0.50000004  0.55029190  0.30005982  1
  H  H114  1  0.49999986  0.56801182  0.49068921  1
  H  H115  1  0.50000008  0.56791882  0.00955309  1
  H  H116  1  0.49999995  0.62301584  0.01619433  1
  H  H117  1  0.49999990  0.68447230  0.02053593  1
