# generated using pymatgen
data_HC4
_symmetry_space_group_name_H-M   'P 1'
_cell_length_a   20.00000000
_cell_length_b   40.19450000
_cell_length_c   17.18533265
_cell_angle_alpha   90.00000000
_cell_angle_beta   90.00000000
_cell_angle_gamma   90.00000000
_symmetry_Int_Tables_number   1
_chemical_formula_structural   HC4
_chemical_formula_sum   'H22 C88'
_cell_volume   13815.11706020
_cell_formula_units_Z   22
loop_
 _symmetry_equiv_pos_site_id
 _symmetry_equiv_pos_as_xyz
  1  'x, y, z'
loop_
 _atom_site_type_symbol
 _atom_site_label
 _atom_site_symmetry_multiplicity
 _atom_site_fract_x
 _atom_site_fract_y
 _atom_site_fract_z
 _atom_site_occupancy
  C  C0  1  0.50000004  0.28478915  0.66661793  1
  C  C1  1  0.50000004  0.28482207  0.91729151  1
  C  C2  1  0.50000003  0.31471428  0.70904481  1
  C  C3  1  0.50000005  0.31485307  0.95766113  1
  C  C4  1  0.49999992  0.28487962  0.58567782  1
  C  C5  1  0.50000004  0.28469918  0.83634900  1
  C  C6  1  0.49999998  0.34562810  0.66803585  1
  C  C7  1  0.50000002  0.34546935  0.91810095  1
  C  C8  1  0.49999998  0.37663866  0.71024563  1
  C  C9  1  0.50000002  0.37773521  0.21135374  1
  C  C10  1  0.50000003  0.37709102  0.96000126  1
  C  C11  1  0.50000001  0.37808852  0.46198342  1
  C  C12  1  0.49999993  0.31493385  0.54541263  1
  C  C13  1  0.50000002  0.31464747  0.79393490  1
  C  C14  1  0.49999999  0.34554197  0.58497342  1
  C  C15  1  0.50000000  0.34552141  0.83503471  1
  C  C16  1  0.49999999  0.40755574  0.66871609  1
  C  C17  1  0.50000001  0.40771866  0.16813110  1
  C  C18  1  0.50000002  0.40771001  0.91768177  1
  C  C19  1  0.50000001  0.40778957  0.41910218  1
  C  C20  1  0.49999998  0.43834131  0.70990673  1
  C  C21  1  0.50000001  0.43834472  0.20975284  1
  C  C22  1  0.50000002  0.43839132  0.95942495  1
  C  C23  1  0.50000002  0.43854741  0.46033617  1
  C  C24  1  0.49999999  0.37713292  0.54299137  1
  C  C25  1  0.50000002  0.37809572  0.04097664  1
  C  C26  1  0.49999999  0.37659210  0.79286174  1
  C  C27  1  0.50000001  0.37774736  0.29145465  1
  C  C28  1  0.50000000  0.40774961  0.58533423  1
  C  C29  1  0.50000002  0.40779716  0.08387659  1
  C  C30  1  0.50000000  0.40755366  0.83432568  1
  C  C31  1  0.50000000  0.40770728  0.33484424  1
  C  C32  1  0.50000000  0.46928637  0.66813435  1
  C  C33  1  0.50000001  0.46918192  0.16786040  1
  C  C34  1  0.50000003  0.46919200  0.91753089  1
  C  C35  1  0.50000002  0.46924108  0.41825263  1
  C  C36  1  0.50000001  0.50021780  0.70976992  1
  C  C37  1  0.50000001  0.49999759  0.20976818  1
  C  C38  1  0.50000000  0.49994801  0.95944607  1
  C  C39  1  0.50000000  0.49993815  0.46032023  1
  C  C40  1  0.50000001  0.43844615  0.54360494  1
  C  C41  1  0.50000001  0.43852643  0.04267686  1
  C  C42  1  0.49999999  0.43832737  0.79304650  1
  C  C43  1  0.50000000  0.43835842  0.29338367  1
  C  C44  1  0.50000001  0.46929155  0.58545649  1
  C  C45  1  0.50000001  0.46916731  0.08489856  1
  C  C46  1  0.50000000  0.46924103  0.83483888  1
  C  C47  1  0.50000001  0.46920635  0.33531910  1
  C  C48  1  0.50000001  0.53091856  0.66853638  1
  C  C49  1  0.50000001  0.53061814  0.16813997  1
  C  C50  1  0.49999999  0.53063300  0.91773042  1
  C  C51  1  0.50000000  0.53068414  0.41908741  1
  C  C52  1  0.50000001  0.56198753  0.71020761  1
  C  C53  1  0.50000003  0.56063744  0.21136093  1
  C  C54  1  0.49999999  0.56120730  0.96020250  1
  C  C55  1  0.49999999  0.56046743  0.46203093  1
  C  C56  1  0.50000001  0.50010244  0.54362482  1
  C  C57  1  0.49999999  0.49979929  0.04274234  1
  C  C58  1  0.49999999  0.50017763  0.79316869  1
  C  C59  1  0.50000002  0.50002984  0.29343135  1
  C  C60  1  0.50000001  0.53082107  0.58529661  1
  C  C61  1  0.49999999  0.53049943  0.08397110  1
  C  C62  1  0.50000000  0.53084200  0.83445724  1
  C  C63  1  0.50000001  0.53071593  0.33491307  1
  C  C64  1  0.49999993  0.59295867  0.66876967  1
  C  C65  1  0.50000010  0.59288262  0.91837675  1
  C  C66  1  0.49999994  0.62361147  0.71019387  1
  C  C67  1  0.50000018  0.62307930  0.95733154  1
  C  C68  1  0.49999999  0.56148629  0.54291316  1
  C  C69  1  0.49999998  0.56021148  0.04101063  1
  C  C70  1  0.50000003  0.56192099  0.79291773  1
  C  C71  1  0.50000002  0.56066947  0.29141876  1
  C  C72  1  0.49999987  0.59319161  0.58499597  1
  C  C73  1  0.50000016  0.59278318  0.83466001  1
  C  C74  1  0.49999964  0.65469378  0.66966790  1
  C  C75  1  0.50000045  0.65399802  0.91825747  1
  C  C76  1  0.49999991  0.68581959  0.71020731  1
  C  C77  1  0.50000036  0.68424898  0.96041215  1
  C  C78  1  0.49999967  0.62358638  0.54667805  1
  C  C79  1  0.50000027  0.62352485  0.79373425  1
  C  C80  1  0.49999942  0.65447183  0.58631860  1
  C  C81  1  0.50000052  0.65445757  0.83495980  1
  C  C82  1  0.49999992  0.71531229  0.66668715  1
  C  C83  1  0.50000022  0.71438369  0.92123977  1
  C  C84  1  0.49999940  0.68497515  0.54505866  1
  C  C85  1  0.50000028  0.68573242  0.79528050  1
  C  C86  1  0.49999970  0.71493771  0.58504142  1
  C  C87  1  0.50000017  0.71505972  0.83956450  1
  H  H88  1  0.50000017  0.26089188  0.69686119  1
  H  H89  1  0.50000005  0.26127495  0.94943319  1
  H  H90  1  0.49999978  0.26132908  0.55359404  1
  H  H91  1  0.50000005  0.26076040  0.80618651  1
  H  H92  1  0.50000017  0.73939122  0.69635974  1
  H  H93  1  0.50000002  0.73782085  0.95386791  1
  H  H94  1  0.49999991  0.73854510  0.55312017  1
  H  H95  1  0.49999995  0.73929159  0.81059823  1
  H  H96  1  0.49999927  0.68455459  0.48126464  1
  H  H97  1  0.49999988  0.31421948  0.48185440  1
  H  H98  1  0.50000006  0.35373454  0.18144679  1
  H  H99  1  0.50000000  0.35464375  0.43029265  1
  H  H100  1  0.49999999  0.35463274  0.07253773  1
  H  H101  1  0.50000001  0.35371627  0.32118278  1
  H  H102  1  0.49999977  0.62462059  0.48306712  1
  H  H103  1  0.50000006  0.58463536  0.18144316  1
  H  H104  1  0.49999998  0.58393350  0.43035121  1
  H  H105  1  0.50000002  0.58366952  0.07258140  1
  H  H106  1  0.50000000  0.58469768  0.32117306  1
  H  H107  1  0.50000008  0.31400506  0.02122500  1
  H  H108  1  0.49999999  0.62406548  0.02093793  1
  H  H109  1  0.50000035  0.68334991  0.02418114  1
