# generated using pymatgen
data_H5C24
_symmetry_space_group_name_H-M   'P 1'
_cell_length_a   20.00000000
_cell_length_b   40.19450000
_cell_length_c   17.17169026
_cell_angle_alpha   90.00000000
_cell_angle_beta   90.00000000
_cell_angle_gamma   90.00000000
_symmetry_Int_Tables_number   1
_chemical_formula_structural   H5C24
_chemical_formula_sum   'H20 C96'
_cell_volume   13804.15007943
_cell_formula_units_Z   4
loop_
 _symmetry_equiv_pos_site_id
 _symmetry_equiv_pos_as_xyz
  1  'x, y, z'
loop_
 _atom_site_type_symbol
 _atom_site_label
 _atom_site_symmetry_multiplicity
 _atom_site_fract_x
 _atom_site_fract_y
 _atom_site_fract_z
 _atom_site_occupancy
  C  C0  1  0.49999999  0.28511120  0.66446965  1
  C  C1  1  0.50000000  0.28515941  0.91611022  1
  C  C2  1  0.49999999  0.31523887  0.70876989  1
  C  C3  1  0.49999999  0.31605662  0.21057530  1
  C  C4  1  0.49999999  0.31566585  0.95857694  1
  C  C5  1  0.50000001  0.31635983  0.46088284  1
  C  C6  1  0.50000000  0.28535904  0.58467825  1
  C  C7  1  0.50000000  0.28498992  0.83627036  1
  C  C8  1  0.50000000  0.34619686  0.66790346  1
  C  C9  1  0.50000000  0.34590307  0.16743083  1
  C  C10  1  0.49999999  0.34638031  0.91664342  1
  C  C11  1  0.50000001  0.34596658  0.41832753  1
  C  C12  1  0.50000001  0.37708250  0.70936964  1
  C  C13  1  0.50000001  0.37655973  0.20888728  1
  C  C14  1  0.50000000  0.37694446  0.95872606  1
  C  C15  1  0.49999999  0.37690682  0.45951334  1
  C  C16  1  0.50000001  0.31588761  0.54250184  1
  C  C17  1  0.50000000  0.31609062  0.04026557  1
  C  C18  1  0.50000000  0.31521326  0.79231639  1
  C  C19  1  0.50000001  0.31606030  0.29091540  1
  C  C20  1  0.50000000  0.34652018  0.58467063  1
  C  C21  1  0.50000000  0.34572926  0.08283277  1
  C  C22  1  0.50000000  0.34612418  0.83340566  1
  C  C23  1  0.50000001  0.34599139  0.33379078  1
  C  C24  1  0.50000001  0.40788969  0.66756100  1
  C  C25  1  0.50000001  0.40754561  0.16725453  1
  C  C26  1  0.50000001  0.40782041  0.91706254  1
  C  C27  1  0.49999999  0.40763261  0.41756513  1
  C  C28  1  0.50000001  0.43861787  0.70911153  1
  C  C29  1  0.50000000  0.43813770  0.20897212  1
  C  C30  1  0.50000000  0.43837126  0.95877854  1
  C  C31  1  0.49999999  0.43831893  0.45933358  1
  C  C32  1  0.49999999  0.37707603  0.54262314  1
  C  C33  1  0.50000000  0.37675026  0.04179707  1
  C  C34  1  0.50000001  0.37705614  0.79209240  1
  C  C35  1  0.50000001  0.37658545  0.29236596  1
  C  C36  1  0.50000000  0.40792349  0.58442606  1
  C  C37  1  0.50000000  0.40749135  0.08396988  1
  C  C38  1  0.50000001  0.40784401  0.83392755  1
  C  C39  1  0.49999999  0.40755645  0.33427568  1
  C  C40  1  0.50000000  0.46939151  0.66761461  1
  C  C41  1  0.50000000  0.46879509  0.16735772  1
  C  C42  1  0.50000000  0.46910021  0.91708636  1
  C  C43  1  0.49999998  0.46895652  0.41773611  1
  C  C44  1  0.49999999  0.50034815  0.70933968  1
  C  C45  1  0.49999999  0.49971237  0.20929235  1
  C  C46  1  0.50000000  0.49985305  0.95903182  1
  C  C47  1  0.50000000  0.49975387  0.45981843  1
  C  C48  1  0.49999999  0.43852870  0.54291046  1
  C  C49  1  0.50000000  0.43816481  0.04238161  1
  C  C50  1  0.50000001  0.43858130  0.79242035  1
  C  C51  1  0.49999999  0.43817803  0.29292366  1
  C  C52  1  0.50000000  0.46928111  0.58468444  1
  C  C53  1  0.50000000  0.46877503  0.08420350  1
  C  C54  1  0.49999999  0.46929291  0.83414636  1
  C  C55  1  0.49999999  0.46886839  0.33461057  1
  C  C56  1  0.49999999  0.53103827  0.66818479  1
  C  C57  1  0.50000002  0.53030248  0.16784045  1
  C  C58  1  0.49999999  0.53058877  0.91755139  1
  C  C59  1  0.50000000  0.53046812  0.41869096  1
  C  C60  1  0.50000001  0.56202989  0.70984988  1
  C  C61  1  0.50000004  0.56024821  0.21092625  1
  C  C62  1  0.50000000  0.56107648  0.95995730  1
  C  C63  1  0.50000000  0.56026448  0.46140095  1
  C  C64  1  0.50000000  0.50011380  0.54298793  1
  C  C65  1  0.50000000  0.49954926  0.04219164  1
  C  C66  1  0.49999999  0.50028269  0.79267139  1
  C  C67  1  0.50000000  0.49978827  0.29280785  1
  C  C68  1  0.49999999  0.53088646  0.58475014  1
  C  C69  1  0.49999999  0.53024607  0.08344651  1
  C  C70  1  0.50000001  0.53088836  0.83410009  1
  C  C71  1  0.50000000  0.53044116  0.33428009  1
  C  C72  1  0.49999997  0.59309039  0.66859161  1
  C  C73  1  0.50000005  0.59277134  0.91832846  1
  C  C74  1  0.49999993  0.62376177  0.71018769  1
  C  C75  1  0.50000013  0.62289984  0.95761053  1
  C  C76  1  0.49999999  0.56152039  0.54256794  1
  C  C77  1  0.49999999  0.56000218  0.04094971  1
  C  C78  1  0.50000001  0.56191126  0.79272794  1
  C  C79  1  0.50000001  0.56035085  0.29112777  1
  C  C80  1  0.49999996  0.59329993  0.58472992  1
  C  C81  1  0.50000007  0.59278437  0.83457802  1
  C  C82  1  0.49999971  0.65488965  0.66981529  1
  C  C83  1  0.50000038  0.65384558  0.91872055  1
  C  C84  1  0.49999992  0.68602757  0.71059947  1
  C  C85  1  0.50000030  0.68396684  0.96134938  1
  C  C86  1  0.49999984  0.62376389  0.54652433  1
  C  C87  1  0.50000017  0.62359111  0.79383808  1
  C  C88  1  0.49999961  0.65464171  0.58635701  1
  C  C89  1  0.50000039  0.65446652  0.83526667  1
  C  C90  1  0.49999999  0.71552186  0.66689621  1
  C  C91  1  0.50000014  0.71413854  0.92240031  1
  C  C92  1  0.49999966  0.68516641  0.54506589  1
  C  C93  1  0.50000015  0.68582120  0.79581811  1
  C  C94  1  0.49999989  0.71511499  0.58510777  1
  C  C95  1  0.50000006  0.71500944  0.84061928  1
  H  H96  1  0.49999996  0.26104310  0.69407912  1
  H  H97  1  0.50000002  0.26167736  0.94871089  1
  H  H98  1  0.49999999  0.26189701  0.55205844  1
  H  H99  1  0.50000003  0.26103587  0.80605021  1
  H  H100  1  0.50000011  0.73971081  0.69619892  1
  H  H101  1  0.50000000  0.73747864  0.95535556  1
  H  H102  1  0.49999992  0.73872267  0.55307592  1
  H  H103  1  0.50000000  0.73934966  0.81212833  1
  H  H104  1  0.49999956  0.68474875  0.48121299  1
  H  H105  1  0.49999999  0.29210910  0.18055265  1
  H  H106  1  0.50000002  0.29236593  0.43094444  1
  H  H107  1  0.50000000  0.29199179  0.06988251  1
  H  H108  1  0.50000000  0.29213290  0.32115045  1
  H  H109  1  0.49999985  0.62504389  0.48287868  1
  H  H110  1  0.50000004  0.58421290  0.18102078  1
  H  H111  1  0.50000000  0.58367782  0.42957043  1
  H  H112  1  0.50000001  0.58338545  0.07287649  1
  H  H113  1  0.49999998  0.58432816  0.32114482  1
  H  H114  1  0.50000002  0.62369116  0.02128989  1
  H  H115  1  0.50000022  0.68287666  0.02519078  1
