# generated using pymatgen
data_H7C17
_symmetry_space_group_name_H-M   'P 1'
_cell_length_a   20.00000000
_cell_length_b   40.19450000
_cell_length_c   17.73351165
_cell_angle_alpha   90.00000000
_cell_angle_beta   90.00000000
_cell_angle_gamma   90.00000000
_symmetry_Int_Tables_number   1
_chemical_formula_structural   H7C17
_chemical_formula_sum   'H28 C68'
_cell_volume   14255.79267789
_cell_formula_units_Z   4
loop_
 _symmetry_equiv_pos_site_id
 _symmetry_equiv_pos_as_xyz
  1  'x, y, z'
loop_
 _atom_site_type_symbol
 _atom_site_label
 _atom_site_symmetry_multiplicity
 _atom_site_fract_x
 _atom_site_fract_y
 _atom_site_fract_z
 _atom_site_occupancy
  C  C0  1  0.49999963  0.28338190  0.66934371  1
  C  C1  1  0.50000067  0.28398160  0.91690268  1
  C  C2  1  0.49999965  0.31276338  0.71193011  1
  C  C3  1  0.50000120  0.31390828  0.95547615  1
  C  C4  1  0.49999931  0.28390500  0.58995993  1
  C  C5  1  0.50000030  0.28344572  0.83750297  1
  C  C6  1  0.49999926  0.34394364  0.67262362  1
  C  C7  1  0.50000117  0.34446050  0.91525710  1
  C  C8  1  0.49999968  0.37464608  0.71292712  1
  C  C9  1  0.50000098  0.37535393  0.95268806  1
  C  C10  1  0.49999878  0.31380703  0.55129489  1
  C  C11  1  0.50000031  0.31279438  0.79480340  1
  C  C12  1  0.49999882  0.34438447  0.59138764  1
  C  C13  1  0.50000072  0.34398820  0.83401912  1
  C  C14  1  0.49999970  0.40548065  0.67428170  1
  C  C15  1  0.50000058  0.40539209  0.91268301  1
  C  C16  1  0.50000001  0.43685499  0.71270810  1
  C  C17  1  0.50000031  0.43614038  0.95089560  1
  C  C18  1  0.49999904  0.37525970  0.55379673  1
  C  C19  1  0.50000033  0.37467371  0.79361936  1
  C  C20  1  0.49999944  0.40533095  0.59371210  1
  C  C21  1  0.50000035  0.40553774  0.83213817  1
  C  C22  1  0.50000005  0.46749681  0.67216158  1
  C  C23  1  0.49999988  0.48313723  0.17258490  1
  C  C24  1  0.49999996  0.46701096  0.91601174  1
  C  C25  1  0.50000014  0.47671241  0.41037357  1
  C  C26  1  0.49999999  0.49834377  0.71263526  1
  C  C27  1  0.50000004  0.51313831  0.21391685  1
  C  C28  1  0.49999991  0.49814293  0.95909435  1
  C  C29  1  0.50000016  0.50041819  0.46867715  1
  C  C30  1  0.49999976  0.43609764  0.55548680  1
  C  C31  1  0.50000007  0.43686639  0.79363721  1
  C  C32  1  0.50000006  0.46699049  0.59031896  1
  C  C33  1  0.49999977  0.47673425  0.09598409  1
  C  C34  1  0.49999995  0.46749666  0.83416523  1
  C  C35  1  0.50000007  0.48315791  0.33382816  1
  C  C36  1  0.49999986  0.52917438  0.67199228  1
  C  C37  1  0.50000013  0.52956021  0.91607574  1
  C  C38  1  0.49999981  0.55980083  0.71255367  1
  C  C39  1  0.50000028  0.56025069  0.95203678  1
  C  C40  1  0.50000011  0.49813256  0.54722922  1
  C  C41  1  0.49999990  0.50043047  0.03766069  1
  C  C42  1  0.50000000  0.49835505  0.79368005  1
  C  C43  1  0.50000004  0.51315448  0.29246398  1
  C  C44  1  0.49999990  0.52956074  0.59018913  1
  C  C45  1  0.50000019  0.52918841  0.83426486  1
  C  C46  1  0.49999940  0.59099784  0.67366604  1
  C  C47  1  0.50000084  0.59103392  0.91352778  1
  C  C48  1  0.49999954  0.62174534  0.71273581  1
  C  C49  1  0.50000106  0.62124100  0.95287416  1
  C  C50  1  0.49999968  0.56026880  0.55424602  1
  C  C51  1  0.50000025  0.55980481  0.79369214  1
  C  C52  1  0.49999920  0.59106908  0.59272767  1
  C  C53  1  0.50000070  0.59098142  0.83261401  1
  C  C54  1  0.49999907  0.65248464  0.67250533  1
  C  C55  1  0.50000129  0.65207432  0.91519768  1
  C  C56  1  0.49999958  0.68363892  0.71183693  1
  C  C57  1  0.50000117  0.68264263  0.95544862  1
  C  C58  1  0.49999890  0.62128041  0.55332860  1
  C  C59  1  0.50000051  0.62174394  0.79366162  1
  C  C60  1  0.49999869  0.65207202  0.59122397  1
  C  C61  1  0.50000088  0.65247573  0.83391185  1
  C  C62  1  0.49999966  0.71300819  0.66928565  1
  C  C63  1  0.50000064  0.71252860  0.91674712  1
  C  C64  1  0.49999885  0.68266889  0.55113305  1
  C  C65  1  0.50000034  0.68364311  0.79468139  1
  C  C66  1  0.49999939  0.71253431  0.58991829  1
  C  C67  1  0.50000031  0.71298718  0.83735366  1
  H  H68  1  0.50000015  0.25915461  0.69751069  1
  H  H69  1  0.50000026  0.26043655  0.94818689  1
  H  H70  1  0.49999983  0.26034918  0.55875399  1
  H  H71  1  0.49999977  0.25921080  0.80938461  1
  H  H72  1  0.50000034  0.73717763  0.69765077  1
  H  H73  1  0.50000012  0.73611022  0.94780703  1
  H  H74  1  0.49999994  0.73612354  0.55887031  1
  H  H75  1  0.49999968  0.73715411  0.80899757  1
  H  H76  1  0.49999885  0.68214662  0.48930024  1
  H  H77  1  0.49999869  0.31438581  0.48948862  1
  H  H78  1  0.49999938  0.62096653  0.49142698  1
  H  H79  1  0.49999905  0.37576710  0.49186129  1
  H  H80  1  0.49999988  0.56216983  0.49282205  1
  H  H81  1  0.49999982  0.46030397  0.20610131  1
  H  H82  1  0.50000019  0.45014661  0.42127650  1
  H  H83  1  0.49999963  0.43382850  0.49493652  1
  H  H84  1  0.49999948  0.45019265  0.08494800  1
  H  H85  1  0.49999999  0.46031320  0.30040723  1
  H  H86  1  0.50000013  0.53707229  0.18408670  1
  H  H87  1  0.50000017  0.52571151  0.44616195  1
  H  H88  1  0.50000006  0.52574419  0.06002144  1
  H  H89  1  0.50000002  0.53707391  0.32234724  1
  H  H90  1  0.50000138  0.31454317  0.01726547  1
  H  H91  1  0.50000086  0.37593599  0.01459457  1
  H  H92  1  0.50000060  0.43390395  0.01143418  1
  H  H93  1  0.49999986  0.56210249  0.01348427  1
  H  H94  1  0.50000053  0.62090493  0.01476541  1
  H  H95  1  0.50000111  0.68208971  0.01729925  1
