# generated using pymatgen
data_H7C16
_symmetry_space_group_name_H-M   'P 1'
_cell_length_a   20.00000000
_cell_length_b   40.19450000
_cell_length_c   18.01045989
_cell_angle_alpha   90.00000000
_cell_angle_beta   90.00000000
_cell_angle_gamma   90.00000000
_symmetry_Int_Tables_number   1
_chemical_formula_structural   H7C16
_chemical_formula_sum   'H28 C64'
_cell_volume   14478.42860149
_cell_formula_units_Z   4
loop_
 _symmetry_equiv_pos_site_id
 _symmetry_equiv_pos_as_xyz
  1  'x, y, z'
loop_
 _atom_site_type_symbol
 _atom_site_label
 _atom_site_symmetry_multiplicity
 _atom_site_fract_x
 _atom_site_fract_y
 _atom_site_fract_z
 _atom_site_occupancy
  C  C0  1  0.49999806  0.28516185  0.67037873  1
  C  C1  1  0.50000273  0.28569918  0.91454823  1
  C  C2  1  0.49999843  0.31449012  0.71251410  1
  C  C3  1  0.50000408  0.31565605  0.95240411  1
  C  C4  1  0.49999712  0.28577013  0.59218317  1
  C  C5  1  0.50000121  0.28511867  0.83631747  1
  C  C6  1  0.49999727  0.34573500  0.67397828  1
  C  C7  1  0.50000397  0.34617070  0.91269903  1
  C  C8  1  0.49999839  0.37644763  0.71363858  1
  C  C9  1  0.50000418  0.37697787  0.95004797  1
  C  C10  1  0.49999643  0.31572427  0.55430087  1
  C  C11  1  0.50000073  0.31444099  0.79415441  1
  C  C12  1  0.49999649  0.34624345  0.59399276  1
  C  C13  1  0.50000228  0.34569472  0.83273967  1
  C  C14  1  0.49999780  0.40725209  0.67523602  1
  C  C15  1  0.50000352  0.40719595  0.91166480  1
  C  C16  1  0.49999907  0.43838700  0.71382627  1
  C  C17  1  0.50000314  0.43813167  0.94966420  1
  C  C18  1  0.49999685  0.37709671  0.55680700  1
  C  C19  1  0.50000104  0.37647387  0.79331905  1
  C  C20  1  0.49999709  0.40724412  0.59553714  1
  C  C21  1  0.50000200  0.40723025  0.83196689  1
  C  C22  1  0.49999920  0.46903657  0.67419815  1
  C  C23  1  0.50000115  0.46843926  0.91364151  1
  C  C24  1  0.49999966  0.49997704  0.71405844  1
  C  C25  1  0.50000079  0.50005367  0.21753374  1
  C  C26  1  0.50000000  0.49998137  0.95611817  1
  C  C27  1  0.50000137  0.49997820  0.47641981  1
  C  C28  1  0.49999748  0.43819728  0.55780764  1
  C  C29  1  0.50000052  0.43839105  0.79358819  1
  C  C30  1  0.49999881  0.46846650  0.59403526  1
  C  C31  1  0.50000043  0.46901980  0.83345212  1
  C  C32  1  0.49999919  0.53091896  0.67421036  1
  C  C33  1  0.50000114  0.53151779  0.91364337  1
  C  C34  1  0.49999904  0.56156339  0.71383029  1
  C  C35  1  0.50000310  0.56182774  0.94966385  1
  C  C36  1  0.49999965  0.49997676  0.55167323  1
  C  C37  1  0.49999771  0.49998361  0.03141211  1
  C  C38  1  0.49999991  0.49997511  0.79366516  1
  C  C39  1  0.49999981  0.50006141  0.29177166  1
  C  C40  1  0.49999878  0.53148200  0.59405414  1
  C  C41  1  0.50000045  0.53092556  0.83345712  1
  C  C42  1  0.49999774  0.59269802  0.67524488  1
  C  C43  1  0.50000342  0.59276074  0.91164168  1
  C  C44  1  0.49999839  0.62350724  0.71363525  1
  C  C45  1  0.50000407  0.62297362  0.95005366  1
  C  C46  1  0.49999743  0.56175323  0.55784118  1
  C  C47  1  0.50000048  0.56156195  0.79357551  1
  C  C48  1  0.49999698  0.59270724  0.59554352  1
  C  C49  1  0.50000193  0.59272334  0.83194637  1
  C  C50  1  0.49999733  0.65420728  0.67394341  1
  C  C51  1  0.50000385  0.65378990  0.91273272  1
  C  C52  1  0.49999841  0.68544711  0.71249531  1
  C  C53  1  0.50000403  0.68431716  0.95237485  1
  C  C54  1  0.49999677  0.62284628  0.55678094  1
  C  C55  1  0.50000095  0.62350103  0.79332107  1
  C  C56  1  0.49999649  0.65370506  0.59395454  1
  C  C57  1  0.50000215  0.65425730  0.83277111  1
  C  C58  1  0.49999805  0.71479881  0.67040476  1
  C  C59  1  0.50000271  0.71426179  0.91447199  1
  C  C60  1  0.49999640  0.68423307  0.55430614  1
  C  C61  1  0.50000064  0.68547730  0.79414073  1
  C  C62  1  0.49999708  0.71417882  0.59220847  1
  C  C63  1  0.50000116  0.71483071  0.83625320  1
  H  H64  1  0.49999900  0.26090478  0.69802890  1
  H  H65  1  0.50000251  0.26219491  0.94552989  1
  H  H66  1  0.49999727  0.26229424  0.56115240  1
  H  H67  1  0.50000003  0.26087918  0.80859407  1
  H  H68  1  0.49999902  0.73904574  0.69810199  1
  H  H69  1  0.50000249  0.73774622  0.94550469  1
  H  H70  1  0.49999730  0.73763988  0.56113862  1
  H  H71  1  0.50000006  0.73908055  0.80854988  1
  H  H72  1  0.49999628  0.68359121  0.49343718  1
  H  H73  1  0.49999628  0.31640189  0.49343484  1
  H  H74  1  0.49999740  0.62258224  0.49586399  1
  H  H75  1  0.49999747  0.37736778  0.49589678  1
  H  H76  1  0.49999636  0.56285634  0.49718474  1
  H  H77  1  0.49999640  0.43708369  0.49714191  1
  H  H78  1  0.50000113  0.52327687  0.18574356  1
  H  H79  1  0.50000189  0.52290222  0.44416268  1
  H  H80  1  0.49999674  0.52289720  0.06379384  1
  H  H81  1  0.49999934  0.52327227  0.32359408  1
  H  H82  1  0.50000130  0.47683467  0.18572903  1
  H  H83  1  0.50000189  0.47706656  0.44410878  1
  H  H84  1  0.49999688  0.47707336  0.06379780  1
  H  H85  1  0.49999948  0.47686708  0.32365238  1
  H  H86  1  0.50000474  0.31632710  0.01327307  1
  H  H87  1  0.50000410  0.37716839  0.01091686  1
  H  H88  1  0.50000475  0.43697813  0.01033909  1
  H  H89  1  0.50000460  0.56298277  0.01034025  1
  H  H90  1  0.50000402  0.62277656  0.01092064  1
  H  H91  1  0.50000476  0.68370845  0.01323154  1
