# generated using pymatgen
data_H7C17
_symmetry_space_group_name_H-M   'P 1'
_cell_length_a   20.00000000
_cell_length_b   40.19450000
_cell_length_c   17.98796532
_cell_angle_alpha   90.00000000
_cell_angle_beta   90.00000000
_cell_angle_gamma   90.00000000
_symmetry_Int_Tables_number   1
_chemical_formula_structural   H7C17
_chemical_formula_sum   'H28 C68'
_cell_volume   14460.34544361
_cell_formula_units_Z   4
loop_
 _symmetry_equiv_pos_site_id
 _symmetry_equiv_pos_as_xyz
  1  'x, y, z'
loop_
 _atom_site_type_symbol
 _atom_site_label
 _atom_site_symmetry_multiplicity
 _atom_site_fract_x
 _atom_site_fract_y
 _atom_site_fract_z
 _atom_site_occupancy
  C  C0  1  0.49999970  0.28723184  0.67208587  1
  C  C1  1  0.50000045  0.28658724  0.90918392  1
  C  C2  1  0.49999983  0.31743119  0.71153517  1
  C  C3  1  0.50000054  0.31624365  0.94880082  1
  C  C4  1  0.49999963  0.28692909  0.59488848  1
  C  C5  1  0.50000016  0.28707333  0.83196948  1
  C  C6  1  0.49999984  0.34815186  0.67148621  1
  C  C7  1  0.50000033  0.34755809  0.91339859  1
  C  C8  1  0.50000010  0.37912689  0.71259134  1
  C  C9  1  0.49999986  0.36380361  0.21408912  1
  C  C10  1  0.50000016  0.37869718  0.95683350  1
  C  C11  1  0.50000018  0.37649529  0.47028242  1
  C  C12  1  0.49999960  0.31667611  0.55561470  1
  C  C13  1  0.50000007  0.31735725  0.79288820  1
  C  C14  1  0.49999966  0.34790694  0.59144051  1
  C  C15  1  0.50000014  0.34798010  0.83331481  1
  C  C16  1  0.50000017  0.40964564  0.67259766  1
  C  C17  1  0.49999890  0.39304818  0.17069533  1
  C  C18  1  0.50000029  0.40979784  0.91401442  1
  C  C19  1  0.50000212  0.39957057  0.41130038  1
  C  C20  1  0.50000016  0.44040540  0.71297803  1
  C  C21  1  0.50000093  0.44074247  0.94849867  1
  C  C22  1  0.49999980  0.37915327  0.54846231  1
  C  C23  1  0.49999986  0.37593272  0.03504855  1
  C  C24  1  0.50000004  0.37903216  0.79258351  1
  C  C25  1  0.50000003  0.36397242  0.29213668  1
  C  C26  1  0.49999955  0.41017005  0.59154350  1
  C  C27  1  0.49999871  0.39898902  0.09413298  1
  C  C28  1  0.50000005  0.40945376  0.83294497  1
  C  C29  1  0.50000160  0.39340715  0.33484764  1
  C  C30  1  0.49999999  0.47150538  0.67503881  1
  C  C31  1  0.50000055  0.47152901  0.91076533  1
  C  C32  1  0.50000020  0.50233613  0.71363136  1
  C  C33  1  0.50000030  0.50167082  0.94995740  1
  C  C34  1  0.49999819  0.44118874  0.55734430  1
  C  C35  1  0.50000023  0.44031068  0.79289565  1
  C  C36  1  0.49999915  0.47191311  0.59539778  1
  C  C37  1  0.50000047  0.47130461  0.83111892  1
  C  C38  1  0.49999959  0.53303403  0.67438431  1
  C  C39  1  0.50000092  0.53268012  0.91299762  1
  C  C40  1  0.50000007  0.56365590  0.71386172  1
  C  C41  1  0.50000070  0.56312669  0.95126507  1
  C  C42  1  0.49999906  0.50217519  0.55663321  1
  C  C43  1  0.50000071  0.50222910  0.79291876  1
  C  C44  1  0.49999904  0.53309598  0.59399418  1
  C  C45  1  0.50000133  0.53282962  0.83259926  1
  C  C46  1  0.49999919  0.59449796  0.67473827  1
  C  C47  1  0.50000186  0.59395843  0.91361585  1
  C  C48  1  0.50000000  0.62508795  0.71411744  1
  C  C49  1  0.50000157  0.62444790  0.95191751  1
  C  C50  1  0.49999865  0.56365945  0.55615706  1
  C  C51  1  0.50000138  0.56355450  0.79356620  1
  C  C52  1  0.49999816  0.59438965  0.59426486  1
  C  C53  1  0.50000210  0.59428386  0.83313963  1
  C  C54  1  0.49999918  0.65591214  0.67475300  1
  C  C55  1  0.50000226  0.65515444  0.91422796  1
  C  C56  1  0.50000032  0.68695595  0.71377928  1
  C  C57  1  0.50000173  0.68578728  0.95370764  1
  C  C58  1  0.49999745  0.62499277  0.55641024  1
  C  C59  1  0.50000173  0.62498448  0.79421246  1
  C  C60  1  0.49999769  0.65559775  0.59453038  1
  C  C61  1  0.50000216  0.65569872  0.83401449  1
  C  C62  1  0.50000029  0.71647429  0.67222116  1
  C  C63  1  0.50000101  0.71569261  0.91557884  1
  C  C64  1  0.49999729  0.68633677  0.55547010  1
  C  C65  1  0.50000139  0.68684475  0.79541159  1
  C  C66  1  0.49999878  0.71612846  0.59403527  1
  C  C67  1  0.50000094  0.71623951  0.83739257  1
  H  H68  1  0.49999969  0.26341966  0.70126893  1
  H  H69  1  0.50000047  0.26282575  0.93904684  1
  H  H70  1  0.49999966  0.26325232  0.56467145  1
  H  H71  1  0.50000006  0.26335399  0.80242833  1
  H  H72  1  0.50000143  0.74059247  0.70042100  1
  H  H73  1  0.50000006  0.73925835  0.94624649  1
  H  H74  1  0.49999898  0.73977724  0.56372613  1
  H  H75  1  0.50000006  0.74043753  0.80955983  1
  H  H76  1  0.49999601  0.68598065  0.49452416  1
  H  H77  1  0.49999957  0.31482689  0.49510769  1
  H  H78  1  0.50000016  0.33943796  0.18643553  1
  H  H79  1  0.49999890  0.35095401  0.44951880  1
  H  H80  1  0.50000054  0.35036777  0.05569177  1
  H  H81  1  0.49999947  0.33973303  0.32034283  1
  H  H82  1  0.49999709  0.62504920  0.49540911  1
  H  H83  1  0.49999881  0.56376145  0.49519908  1
  H  H84  1  0.49999900  0.50193428  0.49563155  1
  H  H85  1  0.49999774  0.41629004  0.20260724  1
  H  H86  1  0.50000509  0.42618518  0.42222955  1
  H  H87  1  0.49999704  0.42560333  0.08322826  1
  H  H88  1  0.50000326  0.41648014  0.30238528  1
  H  H89  1  0.49999564  0.44324395  0.49745487  1
  H  H90  1  0.50000076  0.31428773  0.00929298  1
  H  H91  1  0.50000220  0.44271756  0.00840748  1
  H  H92  1  0.49999958  0.50120009  0.01096927  1
  H  H93  1  0.49999924  0.56303014  0.01221115  1
  H  H94  1  0.50000005  0.62437485  0.01292442  1
  H  H95  1  0.50000132  0.68525293  0.01464577  1
