# generated using pymatgen
data_H3C10
_symmetry_space_group_name_H-M   'P 1'
_cell_length_a   20.00000000
_cell_length_b   40.19450000
_cell_length_c   17.24017308
_cell_angle_alpha   90.00000000
_cell_angle_beta   90.00000000
_cell_angle_gamma   90.00000000
_symmetry_Int_Tables_number   1
_chemical_formula_structural   H3C10
_chemical_formula_sum   'H24 C80'
_cell_volume   13859.20274024
_cell_formula_units_Z   8
loop_
 _symmetry_equiv_pos_site_id
 _symmetry_equiv_pos_as_xyz
  1  'x, y, z'
loop_
 _atom_site_type_symbol
 _atom_site_label
 _atom_site_symmetry_multiplicity
 _atom_site_fract_x
 _atom_site_fract_y
 _atom_site_fract_z
 _atom_site_occupancy
  C  C0  1  0.49999998  0.28491053  0.66655122  1
  C  C1  1  0.50000015  0.28556025  0.92019293  1
  C  C2  1  0.50000000  0.31436015  0.71011043  1
  C  C3  1  0.50000017  0.31562281  0.95950867  1
  C  C4  1  0.49999979  0.28534458  0.58512940  1
  C  C5  1  0.50000018  0.28498740  0.83876823  1
  C  C6  1  0.49999975  0.34552804  0.66995113  1
  C  C7  1  0.50000027  0.34598684  0.91781507  1
  C  C8  1  0.49999998  0.37655649  0.71048550  1
  C  C9  1  0.50000002  0.37683275  0.95702399  1
  C  C10  1  0.49999959  0.31533473  0.54546674  1
  C  C11  1  0.50000030  0.31438549  0.79486511  1
  C  C12  1  0.49999961  0.34580509  0.58678499  1
  C  C13  1  0.50000047  0.34561862  0.83470085  1
  C  C14  1  0.49999996  0.40724528  0.66927901  1
  C  C15  1  0.50000003  0.40713803  0.91837324  1
  C  C16  1  0.50000001  0.43816842  0.71063455  1
  C  C17  1  0.49999999  0.43949478  0.21171667  1
  C  C18  1  0.49999996  0.43872217  0.96017641  1
  C  C19  1  0.50000003  0.43959962  0.46287058  1
  C  C20  1  0.49999982  0.37663915  0.54737100  1
  C  C21  1  0.50000028  0.37657524  0.79382699  1
  C  C22  1  0.49999994  0.40703639  0.58575002  1
  C  C23  1  0.50000013  0.40728309  0.83485687  1
  C  C24  1  0.50000001  0.46914769  0.66913834  1
  C  C25  1  0.49999999  0.46921622  0.16847952  1
  C  C26  1  0.49999999  0.46923622  0.91781307  1
  C  C27  1  0.50000002  0.46917808  0.41982007  1
  C  C28  1  0.50000000  0.49998846  0.71035953  1
  C  C29  1  0.50000001  0.49999367  0.21018510  1
  C  C30  1  0.50000000  0.49998597  0.95965140  1
  C  C31  1  0.50000000  0.49997773  0.46120677  1
  C  C32  1  0.50000002  0.43865496  0.54390074  1
  C  C33  1  0.49999996  0.43965046  0.04116737  1
  C  C34  1  0.50000003  0.43817619  0.79336095  1
  C  C35  1  0.50000000  0.43946813  0.29202532  1
  C  C36  1  0.50000002  0.46921370  0.58615805  1
  C  C37  1  0.49999999  0.46922247  0.08411589  1
  C  C38  1  0.49999999  0.46915506  0.83482401  1
  C  C39  1  0.50000002  0.46917546  0.33544105  1
  C  C40  1  0.50000001  0.53082355  0.66911238  1
  C  C41  1  0.49999999  0.53076335  0.16846740  1
  C  C42  1  0.49999999  0.53073984  0.91782244  1
  C  C43  1  0.50000002  0.53078306  0.41983387  1
  C  C44  1  0.50000002  0.56179565  0.71062738  1
  C  C45  1  0.49999999  0.56047168  0.21173927  1
  C  C46  1  0.49999996  0.56125431  0.96018635  1
  C  C47  1  0.50000003  0.56036698  0.46285211  1
  C  C48  1  0.49999999  0.49998421  0.54429224  1
  C  C49  1  0.50000003  0.49998950  0.04269248  1
  C  C50  1  0.49999999  0.49999080  0.79357419  1
  C  C51  1  0.50000003  0.49999618  0.29377709  1
  C  C52  1  0.50000002  0.53075361  0.58612492  1
  C  C53  1  0.49999999  0.53075366  0.08412077  1
  C  C54  1  0.49999999  0.53081571  0.83483634  1
  C  C55  1  0.50000002  0.53079788  0.33543770  1
  C  C56  1  0.49999996  0.59271368  0.66925053  1
  C  C57  1  0.50000003  0.59283472  0.91837718  1
  C  C58  1  0.49999999  0.62340569  0.71048336  1
  C  C59  1  0.50000002  0.62314495  0.95702448  1
  C  C60  1  0.50000002  0.56130787  0.54384720  1
  C  C61  1  0.49999995  0.56032773  0.04117921  1
  C  C62  1  0.50000003  0.56179102  0.79335701  1
  C  C63  1  0.50000000  0.56050676  0.29204000  1
  C  C64  1  0.49999994  0.59292343  0.58571543  1
  C  C65  1  0.50000014  0.59268725  0.83485999  1
  C  C66  1  0.49999976  0.65442995  0.66995083  1
  C  C67  1  0.50000027  0.65398950  0.91780311  1
  C  C68  1  0.50000000  0.68559839  0.71010606  1
  C  C69  1  0.50000018  0.68435311  0.95949729  1
  C  C70  1  0.49999982  0.62332429  0.54736806  1
  C  C71  1  0.50000028  0.62338232  0.79381854  1
  C  C72  1  0.49999962  0.65416284  0.58679591  1
  C  C73  1  0.50000047  0.65434780  0.83467370  1
  C  C74  1  0.49999998  0.71505837  0.66657519  1
  C  C75  1  0.50000015  0.71441846  0.92017488  1
  C  C76  1  0.49999959  0.68463490  0.54548284  1
  C  C77  1  0.50000030  0.68557434  0.79483562  1
  C  C78  1  0.49999979  0.71462557  0.58516189  1
  C  C79  1  0.50000017  0.71497108  0.83873469  1
  H  H80  1  0.50000019  0.26081907  0.69607180  1
  H  H81  1  0.50000000  0.26207290  0.95248836  1
  H  H82  1  0.49999994  0.26176779  0.55318874  1
  H  H83  1  0.49999995  0.26080287  0.80965871  1
  H  H84  1  0.50000020  0.73915084  0.69609813  1
  H  H85  1  0.50000000  0.73790708  0.95249989  1
  H  H86  1  0.49999992  0.73819770  0.55319995  1
  H  H87  1  0.49999994  0.73916323  0.80963538  1
  H  H88  1  0.49999951  0.68410523  0.48189778  1
  H  H89  1  0.49999952  0.31586403  0.48188592  1
  H  H90  1  0.49999993  0.62434158  0.48397196  1
  H  H91  1  0.49999995  0.37564908  0.48397683  1
  H  H92  1  0.49999999  0.58451794  0.18213446  1
  H  H93  1  0.50000002  0.58386142  0.43134633  1
  H  H94  1  0.49999996  0.58383982  0.07259015  1
  H  H95  1  0.50000000  0.58463855  0.32126679  1
  H  H96  1  0.49999999  0.41544130  0.18215399  1
  H  H97  1  0.50000002  0.41610611  0.43135505  1
  H  H98  1  0.49999996  0.41613489  0.07257070  1
  H  H99  1  0.49999998  0.41534304  0.32128581  1
  H  H100  1  0.50000018  0.31636142  0.02308016  1
  H  H101  1  0.49999982  0.37584198  0.02041581  1
  H  H102  1  0.49999982  0.62415570  0.02042518  1
  H  H103  1  0.50000018  0.68361346  0.02308113  1
