# generated using pymatgen
data_H9C56
_symmetry_space_group_name_H-M   'P 1'
_cell_length_a   20.00000000
_cell_length_b   40.19450000
_cell_length_c   17.25271908
_cell_angle_alpha   90.00000000
_cell_angle_beta   90.00000000
_cell_angle_gamma   90.00000000
_symmetry_Int_Tables_number   1
_chemical_formula_structural   H9C56
_chemical_formula_sum   'H18 C112'
_cell_volume   13869.28833996
_cell_formula_units_Z   2
loop_
 _symmetry_equiv_pos_site_id
 _symmetry_equiv_pos_as_xyz
  1  'x, y, z'
loop_
 _atom_site_type_symbol
 _atom_site_label
 _atom_site_symmetry_multiplicity
 _atom_site_fract_x
 _atom_site_fract_y
 _atom_site_fract_z
 _atom_site_occupancy
  C  C0  1  0.50000001  0.28568264  0.66509117  1
  C  C1  1  0.50000000  0.28541990  0.16474247  1
  C  C2  1  0.50000000  0.28562276  0.91472242  1
  C  C3  1  0.49999999  0.28548672  0.41510335  1
  C  C4  1  0.50000000  0.31571220  0.70812841  1
  C  C5  1  0.50000000  0.31536969  0.20808863  1
  C  C6  1  0.50000000  0.31559434  0.95792094  1
  C  C7  1  0.50000000  0.31549326  0.45828938  1
  C  C8  1  0.50000001  0.28563843  0.58529799  1
  C  C9  1  0.50000000  0.28546880  0.08489199  1
  C  C10  1  0.50000000  0.28567077  0.83492735  1
  C  C11  1  0.49999999  0.28542807  0.33525200  1
  C  C12  1  0.50000000  0.34636502  0.66672709  1
  C  C13  1  0.50000000  0.34601221  0.16655387  1
  C  C14  1  0.50000000  0.34629736  0.91657648  1
  C  C15  1  0.50000000  0.34609980  0.41679858  1
  C  C16  1  0.50000000  0.37723511  0.70855002  1
  C  C17  1  0.50000000  0.37678238  0.20848752  1
  C  C18  1  0.50000000  0.37711307  0.95843255  1
  C  C19  1  0.50000000  0.37692932  0.45865994  1
  C  C20  1  0.50000000  0.31560128  0.54208925  1
  C  C21  1  0.50000000  0.31548441  0.04172586  1
  C  C22  1  0.50000000  0.31570846  0.79191145  1
  C  C23  1  0.50000000  0.31537338  0.29191088  1
  C  C24  1  0.50000000  0.34630025  0.58346166  1
  C  C25  1  0.50000000  0.34609166  0.08323088  1
  C  C26  1  0.50000000  0.34636374  0.83331830  1
  C  C27  1  0.50000000  0.34600879  0.33346075  1
  C  C28  1  0.50000000  0.40793527  0.66677333  1
  C  C29  1  0.50000000  0.40740237  0.16658186  1
  C  C30  1  0.50000000  0.40784993  0.91664913  1
  C  C31  1  0.50000000  0.40753366  0.41687370  1
  C  C32  1  0.50000000  0.43865374  0.70840154  1
  C  C33  1  0.50000000  0.43791795  0.20836756  1
  C  C34  1  0.50000000  0.43847895  0.95820883  1
  C  C35  1  0.50000000  0.43817302  0.45862086  1
  C  C36  1  0.50000000  0.37711081  0.54158663  1
  C  C37  1  0.50000000  0.37691658  0.04136809  1
  C  C38  1  0.50000000  0.37723562  0.79150357  1
  C  C39  1  0.50000000  0.37678724  0.29154537  1
  C  C40  1  0.50000000  0.40784500  0.58340630  1
  C  C41  1  0.50000000  0.40752071  0.08315387  1
  C  C42  1  0.50000000  0.40793467  0.83328828  1
  C  C43  1  0.50000000  0.40741082  0.33347133  1
  C  C44  1  0.50000000  0.46948706  0.66670814  1
  C  C45  1  0.50000000  0.46851864  0.16626760  1
  C  C46  1  0.50000000  0.46934746  0.91630631  1
  C  C47  1  0.50000000  0.46877851  0.41680802  1
  C  C48  1  0.50000000  0.50035562  0.70831769  1
  C  C49  1  0.50000000  0.49894471  0.20832982  1
  C  C50  1  0.50000000  0.50006993  0.95788098  1
  C  C51  1  0.50000000  0.49950940  0.45880055  1
  C  C52  1  0.50000000  0.43846813  0.54185091  1
  C  C53  1  0.50000000  0.43817710  0.04141682  1
  C  C54  1  0.50000000  0.43865763  0.79163948  1
  C  C55  1  0.50000000  0.43792556  0.29168983  1
  C  C56  1  0.50000000  0.46934559  0.58374657  1
  C  C57  1  0.50000000  0.46878130  0.08324929  1
  C  C58  1  0.50000000  0.46948995  0.83334537  1
  C  C59  1  0.50000000  0.46851943  0.33379453  1
  C  C60  1  0.50000000  0.53110116  0.66693698  1
  C  C61  1  0.50000001  0.52936011  0.16626968  1
  C  C62  1  0.50000000  0.53098205  0.91627687  1
  C  C63  1  0.50000000  0.52990479  0.41710378  1
  C  C64  1  0.50000000  0.56216204  0.70840518  1
  C  C65  1  0.50000001  0.55959956  0.20851642  1
  C  C66  1  0.50000001  0.56175513  0.95819681  1
  C  C67  1  0.50000000  0.56070266  0.45908684  1
  C  C68  1  0.50000000  0.50006761  0.54217212  1
  C  C69  1  0.50000000  0.49950116  0.04126264  1
  C  C70  1  0.50000000  0.50035670  0.79170555  1
  C  C71  1  0.50000000  0.49894318  0.29171374  1
  C  C72  1  0.50000000  0.53097896  0.58377222  1
  C  C73  1  0.50000001  0.52989938  0.08293884  1
  C  C74  1  0.50000000  0.53111103  0.83312387  1
  C  C75  1  0.50000000  0.52936470  0.33378187  1
  C  C76  1  0.49999999  0.59298541  0.66656939  1
  C  C77  1  0.50000000  0.59002934  0.16622478  1
  C  C78  1  0.50000002  0.59322553  0.91746445  1
  C  C79  1  0.49999999  0.59101715  0.41688886  1
  C  C80  1  0.49999999  0.62363710  0.70835292  1
  C  C81  1  0.49999999  0.61971343  0.20917464  1
  C  C82  1  0.50000002  0.62389345  0.95966092  1
  C  C83  1  0.49999999  0.62218583  0.45689643  1
  C  C84  1  0.49999999  0.56175811  0.54186638  1
  C  C85  1  0.50000001  0.56070033  0.04097646  1
  C  C86  1  0.50000000  0.56216445  0.79167288  1
  C  C87  1  0.50000000  0.55960273  0.29153642  1
  C  C88  1  0.49999998  0.59322760  0.58259915  1
  C  C89  1  0.50000001  0.59100771  0.08316503  1
  C  C90  1  0.50000001  0.59297854  0.83350601  1
  C  C91  1  0.50000000  0.59003061  0.33382488  1
  C  C92  1  0.50000000  0.65465950  0.66641584  1
  C  C93  1  0.49999998  0.64996118  0.16977903  1
  C  C94  1  0.50000001  0.65548628  0.91683657  1
  C  C95  1  0.50000001  0.65061784  0.40858327  1
  C  C96  1  0.50000001  0.68525482  0.70832954  1
  C  C97  1  0.50000000  0.68782166  0.94969607  1
  C  C98  1  0.49999998  0.62389127  0.54038959  1
  C  C99  1  0.50000001  0.62216929  0.04314044  1
  C  C100  1  0.50000001  0.62363478  0.79173108  1
  C  C101  1  0.50000000  0.61971005  0.29084586  1
  C  C102  1  0.49999998  0.65547593  0.58322928  1
  C  C103  1  0.49999999  0.65060974  0.09141506  1
  C  C104  1  0.50000000  0.65465433  0.83364258  1
  C  C105  1  0.50000002  0.64995820  0.33023748  1
  C  C106  1  0.50000006  0.71614424  0.67088392  1
  C  C107  1  0.49999996  0.71725165  0.90849543  1
  C  C108  1  0.49999998  0.68780514  0.55038332  1
  C  C109  1  0.49999999  0.68525083  0.79172901  1
  C  C110  1  0.50000004  0.71723975  0.59155718  1
  C  C111  1  0.49999994  0.71615025  0.82917584  1
  H  H112  1  0.50000001  0.26171916  0.69504064  1
  H  H113  1  0.50000000  0.26142749  0.19453794  1
  H  H114  1  0.50000000  0.26164715  0.94461565  1
  H  H115  1  0.49999999  0.26150605  0.44498109  1
  H  H116  1  0.50000001  0.26166271  0.55542493  1
  H  H117  1  0.50000000  0.26149766  0.05497079  1
  H  H118  1  0.50000000  0.26171856  0.80492407  1
  H  H119  1  0.49999999  0.26142491  0.30549136  1
  H  H120  1  0.50000009  0.73955514  0.70234236  1
  H  H121  1  0.49999994  0.74101897  0.93954272  1
  H  H122  1  0.50000004  0.74099869  0.56052157  1
  H  H123  1  0.49999991  0.73955003  0.79764765  1
  H  H124  1  0.49999994  0.67376907  0.19979790  1
  H  H125  1  0.50000003  0.67537229  0.42968511  1
  H  H126  1  0.49999998  0.67534091  0.07023484  1
  H  H127  1  0.50000005  0.67375239  0.30017403  1
  H  H128  1  0.49999993  0.69312561  0.48989307  1
  H  H129  1  0.50000004  0.69318559  0.01018788  1
