# generated using pymatgen
data_H13C38
_symmetry_space_group_name_H-M   'P 1'
_cell_length_a   20.00000000
_cell_length_b   40.19450000
_cell_length_c   17.51853867
_cell_angle_alpha   90.00000000
_cell_angle_beta   90.00000000
_cell_angle_gamma   90.00000000
_symmetry_Int_Tables_number   1
_chemical_formula_structural   H13C38
_chemical_formula_sum   'H26 C76'
_cell_volume   14082.97805235
_cell_formula_units_Z   2
loop_
 _symmetry_equiv_pos_site_id
 _symmetry_equiv_pos_as_xyz
  1  'x, y, z'
loop_
 _atom_site_type_symbol
 _atom_site_label
 _atom_site_symmetry_multiplicity
 _atom_site_fract_x
 _atom_site_fract_y
 _atom_site_fract_z
 _atom_site_occupancy
  C  C0  1  0.50000000  0.28602533  0.66533805  1
  C  C1  1  0.50000008  0.28640999  0.91483565  1
  C  C2  1  0.50000001  0.31543020  0.70828765  1
  C  C3  1  0.50000010  0.31641929  0.95358829  1
  C  C4  1  0.49999989  0.28639204  0.58514574  1
  C  C5  1  0.50000007  0.28604286  0.83466574  1
  C  C6  1  0.50000000  0.34663209  0.66911619  1
  C  C7  1  0.50000008  0.34676241  0.91246491  1
  C  C8  1  0.50000000  0.37771243  0.70894394  1
  C  C9  1  0.50000006  0.37750393  0.95100820  1
  C  C10  1  0.49999985  0.31640255  0.54639999  1
  C  C11  1  0.50000006  0.31543062  0.79166198  1
  C  C12  1  0.49999992  0.34676090  0.58748900  1
  C  C13  1  0.50000006  0.34663121  0.83084606  1
  C  C14  1  0.49999996  0.40838553  0.66857369  1
  C  C15  1  0.50000007  0.40788113  0.91338508  1
  C  C16  1  0.50000000  0.43963682  0.70871202  1
  C  C17  1  0.50000001  0.43412528  0.21009234  1
  C  C18  1  0.50000004  0.43912233  0.95604767  1
  C  C19  1  0.49999997  0.43816732  0.46427166  1
  C  C20  1  0.49999990  0.37749652  0.54893918  1
  C  C21  1  0.50000005  0.37771795  0.79098126  1
  C  C22  1  0.49999990  0.40789136  0.58657152  1
  C  C23  1  0.50000006  0.40838391  0.83132540  1
  C  C24  1  0.50000001  0.47028386  0.66704842  1
  C  C25  1  0.50000001  0.46404927  0.16556442  1
  C  C26  1  0.49999999  0.47037480  0.91617709  1
  C  C27  1  0.49999999  0.46661747  0.41840941  1
  C  C28  1  0.50000001  0.50095488  0.70855043  1
  C  C29  1  0.50000001  0.49365056  0.20912754  1
  C  C30  1  0.49999997  0.50057105  0.95943761  1
  C  C31  1  0.50000001  0.49841136  0.45725552  1
  C  C32  1  0.49999995  0.43912195  0.54385365  1
  C  C33  1  0.50000003  0.43817074  0.03563754  1
  C  C34  1  0.50000002  0.43965027  0.79109855  1
  C  C35  1  0.50000000  0.43412869  0.28979981  1
  C  C36  1  0.50000000  0.47037706  0.58363762  1
  C  C37  1  0.50000000  0.46662893  0.08148711  1
  C  C38  1  0.49999999  0.47028464  0.83275972  1
  C  C39  1  0.49999999  0.46405113  0.33433333  1
  C  C40  1  0.50000000  0.53172512  0.66740584  1
  C  C41  1  0.49999998  0.52427997  0.17005272  1
  C  C42  1  0.50000002  0.53215905  0.91573592  1
  C  C43  1  0.50000003  0.52630371  0.40718291  1
  C  C44  1  0.49999998  0.56241208  0.70902121  1
  C  C45  1  0.50000012  0.56361954  0.94858412  1
  C  C46  1  0.50000002  0.50057993  0.54040831  1
  C  C47  1  0.49999998  0.49841985  0.04259513  1
  C  C48  1  0.49999998  0.50095134  0.79126586  1
  C  C49  1  0.50000000  0.49364638  0.29074419  1
  C  C50  1  0.49999998  0.53218124  0.58411651  1
  C  C51  1  0.49999996  0.52631790  0.09270379  1
  C  C52  1  0.50000002  0.53172378  0.83246405  1
  C  C53  1  0.50000002  0.52426731  0.32981983  1
  C  C54  1  0.49999993  0.59398109  0.67102191  1
  C  C55  1  0.50000018  0.59422517  0.90987591  1
  C  C56  1  0.49999998  0.62501333  0.70935253  1
  C  C57  1  0.50000021  0.62419160  0.95087362  1
  C  C58  1  0.49999986  0.56364875  0.55127082  1
  C  C59  1  0.50000006  0.56240504  0.79087571  1
  C  C60  1  0.49999984  0.59425443  0.59000182  1
  C  C61  1  0.50000015  0.59397285  0.82887728  1
  C  C62  1  0.49999994  0.65566948  0.66851428  1
  C  C63  1  0.50000021  0.65516181  0.91354807  1
  C  C64  1  0.49999998  0.68690729  0.70808116  1
  C  C65  1  0.50000023  0.68568211  0.95453085  1
  C  C66  1  0.49999978  0.62424010  0.54901225  1
  C  C67  1  0.50000013  0.62500919  0.79056180  1
  C  C68  1  0.49999981  0.65519555  0.58635962  1
  C  C69  1  0.50000017  0.65566463  0.83139572  1
  C  C70  1  0.49999992  0.71625056  0.66486167  1
  C  C71  1  0.50000018  0.71564170  0.91558505  1
  C  C72  1  0.49999971  0.68573269  0.54546696  1
  C  C73  1  0.50000013  0.68690937  0.79186284  1
  C  C74  1  0.49999980  0.71567716  0.58446195  1
  C  C75  1  0.50000013  0.71623590  0.83516369  1
  H  H76  1  0.50000006  0.26196995  0.69448621  1
  H  H77  1  0.50000003  0.26286433  0.94639820  1
  H  H78  1  0.49999991  0.26285025  0.55356314  1
  H  H79  1  0.50000004  0.26198205  0.80556240  1
  H  H80  1  0.50000005  0.74044108  0.69362522  1
  H  H81  1  0.50000009  0.73920192  0.94720342  1
  H  H82  1  0.49999983  0.73922066  0.55282233  1
  H  H83  1  0.50000004  0.74043574  0.80643908  1
  H  H84  1  0.49999959  0.68511466  0.48286179  1
  H  H85  1  0.49999977  0.31723312  0.48382770  1
  H  H86  1  0.49999966  0.62354488  0.48635504  1
  H  H87  1  0.49999994  0.37619797  0.48667018  1
  H  H88  1  0.50000001  0.40982624  0.18168740  1
  H  H89  1  0.49999997  0.41410539  0.43577830  1
  H  H90  1  0.50000003  0.41410333  0.06414375  1
  H  H91  1  0.49999999  0.40981811  0.31812599  1
  H  H92  1  0.49999994  0.54786527  0.20069895  1
  H  H93  1  0.50000011  0.55159157  0.42598060  1
  H  H94  1  0.49999990  0.55161230  0.07390033  1
  H  H95  1  0.50000007  0.54784307  0.29919087  1
  H  H96  1  0.49999980  0.56772681  0.49104044  1
  H  H97  1  0.50000008  0.31723933  0.01614350  1
  H  H98  1  0.49999997  0.37622656  0.01328610  1
  H  H99  1  0.50000009  0.56766870  0.00880111  1
  H  H100  1  0.50000025  0.62349540  0.01352387  1
  H  H101  1  0.50000027  0.68507101  0.01714868  1
