# generated using pymatgen
data_H7C18
_symmetry_space_group_name_H-M   'P 1'
_cell_length_a   20.00000000
_cell_length_b   40.19450000
_cell_length_c   17.68834991
_cell_angle_alpha   90.00000000
_cell_angle_beta   90.00000000
_cell_angle_gamma   90.00000000
_symmetry_Int_Tables_number   1
_chemical_formula_structural   H7C18
_chemical_formula_sum   'H28 C72'
_cell_volume   14219.48760816
_cell_formula_units_Z   4
loop_
 _symmetry_equiv_pos_site_id
 _symmetry_equiv_pos_as_xyz
  1  'x, y, z'
loop_
 _atom_site_type_symbol
 _atom_site_label
 _atom_site_symmetry_multiplicity
 _atom_site_fract_x
 _atom_site_fract_y
 _atom_site_fract_z
 _atom_site_occupancy
  C  C0  1  0.50000000  0.28804464  0.66610587  1
  C  C1  1  0.50000000  0.27697321  0.15770066  1
  C  C2  1  0.49999995  0.28790882  0.91281128  1
  C  C3  1  0.49999998  0.28109704  0.42122010  1
  C  C4  1  0.49999999  0.31758746  0.70856881  1
  C  C5  1  0.49999998  0.30439467  0.20803903  1
  C  C6  1  0.49999997  0.31670094  0.95775552  1
  C  C7  1  0.50000005  0.31271021  0.45820089  1
  C  C8  1  0.50000004  0.28793411  0.58717121  1
  C  C9  1  0.50000000  0.28107994  0.07879739  1
  C  C10  1  0.50000000  0.28802893  0.83386594  1
  C  C11  1  0.49999998  0.27698973  0.34232127  1
  C  C12  1  0.49999994  0.34806650  0.66735487  1
  C  C13  1  0.49999992  0.33540851  0.17131183  1
  C  C14  1  0.50000008  0.34812798  0.91549115  1
  C  C15  1  0.50000015  0.33936451  0.40614607  1
  C  C16  1  0.49999989  0.37877139  0.70908372  1
  C  C17  1  0.50000033  0.37974365  0.94908086  1
  C  C18  1  0.50000003  0.31673361  0.54224417  1
  C  C19  1  0.49999993  0.31268754  0.04180439  1
  C  C20  1  0.49999999  0.31758289  0.79143428  1
  C  C21  1  0.50000000  0.30440792  0.29196917  1
  C  C22  1  0.49999990  0.34815837  0.58452375  1
  C  C23  1  0.49999984  0.33934354  0.09385478  1
  C  C24  1  0.50000003  0.34805688  0.83266765  1
  C  C25  1  0.50000007  0.33542600  0.32869886  1
  C  C26  1  0.49999968  0.40976954  0.67098862  1
  C  C27  1  0.50000050  0.41001110  0.90996693  1
  C  C28  1  0.49999973  0.44076198  0.70981465  1
  C  C29  1  0.50000082  0.44037441  0.94987859  1
  C  C30  1  0.49999966  0.37978503  0.55096933  1
  C  C31  1  0.50000005  0.37876651  0.79097252  1
  C  C32  1  0.49999946  0.41004279  0.59014523  1
  C  C33  1  0.50000025  0.40975109  0.82912705  1
  C  C34  1  0.49999939  0.47125274  0.66960334  1
  C  C35  1  0.50000090  0.47120842  0.91243920  1
  C  C36  1  0.49999961  0.50194723  0.70956342  1
  C  C37  1  0.50000116  0.50181118  0.95119192  1
  C  C38  1  0.49999913  0.44041791  0.55028965  1
  C  C39  1  0.50000016  0.44075137  0.79035388  1
  C  C40  1  0.49999903  0.47124178  0.58777025  1
  C  C41  1  0.50000050  0.47123380  0.83060668  1
  C  C42  1  0.49999927  0.53264015  0.66954820  1
  C  C43  1  0.50000115  0.53253349  0.91273310  1
  C  C44  1  0.49999958  0.56321444  0.70956357  1
  C  C45  1  0.50000127  0.56312340  0.95131761  1
  C  C46  1  0.49999881  0.50185766  0.54904373  1
  C  C47  1  0.50000030  0.50194142  0.79068015  1
  C  C48  1  0.49999887  0.53256795  0.58753837  1
  C  C49  1  0.50000068  0.53262355  0.83072578  1
  C  C50  1  0.49999923  0.59406058  0.66954132  1
  C  C51  1  0.50000123  0.59384539  0.91268569  1
  C  C52  1  0.49999960  0.62461370  0.70940741  1
  C  C53  1  0.50000131  0.62437967  0.95140868  1
  C  C54  1  0.49999877  0.56316382  0.54899162  1
  C  C55  1  0.50000039  0.56320046  0.79074633  1
  C  C56  1  0.49999882  0.59388872  0.58766322  1
  C  C57  1  0.50000075  0.59404876  0.83080184  1
  C  C58  1  0.49999940  0.65543076  0.66919488  1
  C  C59  1  0.50000108  0.65500249  0.91280063  1
  C  C60  1  0.49999980  0.68649448  0.70868619  1
  C  C61  1  0.50000095  0.68566490  0.95275955  1
  C  C62  1  0.49999880  0.62441890  0.54896466  1
  C  C63  1  0.50000038  0.62460521  0.79096314  1
  C  C64  1  0.49999900  0.65503987  0.58762288  1
  C  C65  1  0.50000062  0.65541312  0.83119810  1
  C  C66  1  0.49999990  0.71596170  0.66621382  1
  C  C67  1  0.50000045  0.71551753  0.91379937  1
  C  C68  1  0.49999909  0.68571945  0.54766426  1
  C  C69  1  0.50000022  0.68648612  0.79174881  1
  C  C70  1  0.49999957  0.71554763  0.58667667  1
  C  C71  1  0.50000013  0.71593625  0.83424012  1
  H  H72  1  0.49999992  0.26395818  0.69486765  1
  H  H73  1  0.50000004  0.25145513  0.17972124  1
  H  H74  1  0.49999993  0.26347116  0.93992128  1
  H  H75  1  0.49999991  0.25819628  0.45468542  1
  H  H76  1  0.50000006  0.26349899  0.56006144  1
  H  H77  1  0.50000005  0.25818759  0.04532001  1
  H  H78  1  0.50000007  0.26395107  0.80505904  1
  H  H79  1  0.49999994  0.25147663  0.32026766  1
  H  H80  1  0.50000033  0.74008768  0.69482585  1
  H  H81  1  0.50000025  0.73911463  0.94483572  1
  H  H82  1  0.49999975  0.73916454  0.55566068  1
  H  H83  1  0.49999973  0.74007667  0.80569047  1
  H  H84  1  0.49999883  0.68524723  0.48568853  1
  H  H85  1  0.49999877  0.62442021  0.48693430  1
  H  H86  1  0.49999880  0.56323126  0.48699496  1
  H  H87  1  0.49999878  0.50177053  0.48705684  1
  H  H88  1  0.49999907  0.43992913  0.48827514  1
  H  H89  1  0.49999992  0.35852584  0.20335440  1
  H  H90  1  0.50000031  0.36511991  0.42298874  1
  H  H91  1  0.49999966  0.36510289  0.07705205  1
  H  H92  1  0.50000007  0.35855124  0.29667614  1
  H  H93  1  0.49999961  0.38303865  0.49064633  1
  H  H94  1  0.50000045  0.38296442  0.00940177  1
  H  H95  1  0.50000096  0.43986224  0.01189218  1
  H  H96  1  0.50000129  0.50172890  0.01317529  1
  H  H97  1  0.50000137  0.56319132  0.01331727  1
  H  H98  1  0.50000143  0.62436019  0.01344679  1
  H  H99  1  0.50000117  0.68518893  0.01474520  1
