# generated using pymatgen
data_H11C46
_symmetry_space_group_name_H-M   'P 1'
_cell_length_a   20.00000000
_cell_length_b   40.19450000
_cell_length_c   17.32161031
_cell_angle_alpha   90.00000000
_cell_angle_beta   90.00000000
_cell_angle_gamma   90.00000000
_symmetry_Int_Tables_number   1
_chemical_formula_structural   H11C46
_chemical_formula_sum   'H22 C92'
_cell_volume   13924.66931172
_cell_formula_units_Z   2
loop_
 _symmetry_equiv_pos_site_id
 _symmetry_equiv_pos_as_xyz
  1  'x, y, z'
loop_
 _atom_site_type_symbol
 _atom_site_label
 _atom_site_symmetry_multiplicity
 _atom_site_fract_x
 _atom_site_fract_y
 _atom_site_fract_z
 _atom_site_occupancy
  C  C0  1  0.49999999  0.28514835  0.66589368  1
  C  C1  1  0.50000002  0.28516343  0.91449497  1
  C  C2  1  0.50000000  0.31508359  0.70790136  1
  C  C3  1  0.50000004  0.31514914  0.95454162  1
  C  C4  1  0.49999997  0.28515479  0.58558650  1
  C  C5  1  0.50000001  0.28514200  0.83418201  1
  C  C6  1  0.49999999  0.34602842  0.66715202  1
  C  C7  1  0.50000002  0.34580036  0.91538812  1
  C  C8  1  0.49999999  0.37714137  0.70891499  1
  C  C9  1  0.50000001  0.37654658  0.20997513  1
  C  C10  1  0.50000002  0.37728685  0.95732551  1
  C  C11  1  0.49999999  0.37778535  0.46190325  1
  C  C12  1  0.49999996  0.31513984  0.54552030  1
  C  C13  1  0.50000001  0.31507093  0.79213604  1
  C  C14  1  0.49999997  0.34580863  0.58462501  1
  C  C15  1  0.50000001  0.34600151  0.83287319  1
  C  C16  1  0.49999999  0.40799968  0.66743107  1
  C  C17  1  0.50000001  0.40639152  0.16623249  1
  C  C18  1  0.50000001  0.40799323  0.91550630  1
  C  C19  1  0.50000000  0.40708816  0.41812401  1
  C  C20  1  0.50000000  0.43891260  0.70853862  1
  C  C21  1  0.50000001  0.43679894  0.20834015  1
  C  C22  1  0.50000000  0.43856535  0.95747839  1
  C  C23  1  0.50000000  0.43801200  0.45940434  1
  C  C24  1  0.49999998  0.37728986  0.54263565  1
  C  C25  1  0.50000002  0.37776639  0.03805050  1
  C  C26  1  0.50000000  0.37714447  0.79112170  1
  C  C27  1  0.50000000  0.37656192  0.28999104  1
  C  C28  1  0.49999999  0.40797890  0.58450210  1
  C  C29  1  0.50000001  0.40706889  0.08181207  1
  C  C30  1  0.50000000  0.40803332  0.83257160  1
  C  C31  1  0.50000000  0.40640139  0.33374343  1
  C  C32  1  0.50000000  0.46974056  0.66678312  1
  C  C33  1  0.50000001  0.46754986  0.16617737  1
  C  C34  1  0.50000000  0.46960822  0.91595221  1
  C  C35  1  0.50000000  0.46836431  0.41702381  1
  C  C36  1  0.50000000  0.50081559  0.70819004  1
  C  C37  1  0.50000000  0.49774239  0.20839202  1
  C  C38  1  0.50000000  0.50017474  0.95820286  1
  C  C39  1  0.50000000  0.49914876  0.45897839  1
  C  C40  1  0.50000000  0.43854997  0.54253376  1
  C  C41  1  0.50000001  0.43800802  0.04059903  1
  C  C42  1  0.50000000  0.43892016  0.79143328  1
  C  C43  1  0.50000001  0.43682287  0.29191970  1
  C  C44  1  0.50000000  0.46959818  0.58407140  1
  C  C45  1  0.50000001  0.46834961  0.08303960  1
  C  C46  1  0.50000000  0.46973994  0.83322890  1
  C  C47  1  0.50000000  0.46758279  0.33393863  1
  C  C48  1  0.49999999  0.53151498  0.66637982  1
  C  C49  1  0.50000000  0.52820452  0.16607090  1
  C  C50  1  0.50000001  0.53154100  0.91744706  1
  C  C51  1  0.49999999  0.52943824  0.41692352  1
  C  C52  1  0.50000000  0.56239026  0.70859765  1
  C  C53  1  0.50000000  0.55784751  0.20932935  1
  C  C54  1  0.50000002  0.56222716  0.95960472  1
  C  C55  1  0.50000000  0.56074430  0.45718054  1
  C  C56  1  0.50000000  0.50017575  0.54182891  1
  C  C57  1  0.50000001  0.49914056  0.04106157  1
  C  C58  1  0.50000000  0.50081588  0.79181997  1
  C  C59  1  0.50000000  0.49775596  0.29166831  1
  C  C60  1  0.49999999  0.53154040  0.58255475  1
  C  C61  1  0.50000000  0.52942692  0.08311941  1
  C  C62  1  0.50000000  0.53151608  0.83361931  1
  C  C63  1  0.50000000  0.52821845  0.33397195  1
  C  C64  1  0.50000000  0.59337950  0.66754041  1
  C  C65  1  0.49999997  0.58808941  0.16993076  1
  C  C66  1  0.50000003  0.59366332  0.91602304  1
  C  C67  1  0.50000005  0.58907027  0.40818314  1
  C  C68  1  0.50000001  0.62424300  0.70881338  1
  C  C69  1  0.50000005  0.62520321  0.94904636  1
  C  C70  1  0.49999998  0.56223366  0.54042517  1
  C  C71  1  0.50000000  0.56073065  0.04286313  1
  C  C72  1  0.50000000  0.56239125  0.79145357  1
  C  C73  1  0.50000000  0.55785142  0.29069039  1
  C  C74  1  0.49999997  0.59367395  0.58399953  1
  C  C75  1  0.49999997  0.58906901  0.09183488  1
  C  C76  1  0.50000001  0.59337706  0.83249088  1
  C  C77  1  0.50000003  0.58808788  0.33008942  1
  C  C78  1  0.50000001  0.65592069  0.67053253  1
  C  C79  1  0.50000001  0.65578074  0.91084326  1
  C  C80  1  0.50000003  0.68744687  0.70833451  1
  C  C81  1  0.49999998  0.68564494  0.95434605  1
  C  C82  1  0.49999991  0.62522376  0.55097828  1
  C  C83  1  0.50000001  0.62423721  0.79120321  1
  C  C84  1  0.49999998  0.65579845  0.58920891  1
  C  C85  1  0.50000001  0.65591145  0.82951812  1
  C  C86  1  0.50000003  0.71672311  0.66426589  1
  C  C87  1  0.49999997  0.71599934  0.91680780  1
  C  C88  1  0.49999999  0.68567128  0.54573651  1
  C  C89  1  0.50000001  0.68744192  0.79174182  1
  C  C90  1  0.50000002  0.71601943  0.58330257  1
  C  C91  1  0.50000001  0.71671028  0.83584054  1
  H  H92  1  0.50000001  0.26123239  0.69583066  1
  H  H93  1  0.50000003  0.26158945  0.94625384  1
  H  H94  1  0.49999996  0.26156830  0.55386311  1
  H  H95  1  0.50000000  0.26122251  0.80426817  1
  H  H96  1  0.50000003  0.74092480  0.69313831  1
  H  H97  1  0.49999994  0.73930909  0.94961876  1
  H  H98  1  0.50000003  0.73934052  0.55053927  1
  H  H99  1  0.50000002  0.74091486  0.80699578  1
  H  H100  1  0.49999998  0.68424979  0.48249871  1
  H  H101  1  0.49999993  0.31430835  0.48247279  1
  H  H102  1  0.50000001  0.35240750  0.18074963  1
  H  H103  1  0.49999999  0.35414375  0.43118053  1
  H  H104  1  0.50000002  0.35413412  0.06879654  1
  H  H105  1  0.49999999  0.35244813  0.31931816  1
  H  H106  1  0.49999994  0.61184716  0.20007065  1
  H  H107  1  0.50000015  0.61418058  0.42742757  1
  H  H108  1  0.49999992  0.61418922  0.07262147  1
  H  H109  1  0.50000007  0.61184421  0.29996758  1
  H  H110  1  0.49999976  0.62967569  0.49055475  1
  H  H111  1  0.50000006  0.31434462  0.01758348  1
  H  H112  1  0.50000014  0.62966466  0.00946007  1
  H  H113  1  0.49999996  0.68419352  0.01758382  1
