# generated using pymatgen
data_H11C46
_symmetry_space_group_name_H-M   'P 1'
_cell_length_a   20.00000000
_cell_length_b   40.19450000
_cell_length_c   17.33436630
_cell_angle_alpha   90.00000000
_cell_angle_beta   90.00000000
_cell_angle_gamma   90.00000000
_symmetry_Int_Tables_number   1
_chemical_formula_structural   H11C46
_chemical_formula_sum   'H22 C92'
_cell_volume   13934.92372857
_cell_formula_units_Z   2
loop_
 _symmetry_equiv_pos_site_id
 _symmetry_equiv_pos_as_xyz
  1  'x, y, z'
loop_
 _atom_site_type_symbol
 _atom_site_label
 _atom_site_symmetry_multiplicity
 _atom_site_fract_x
 _atom_site_fract_y
 _atom_site_fract_z
 _atom_site_occupancy
  C  C0  1  0.49999998  0.28570434  0.66496939  1
  C  C1  1  0.50000001  0.28565386  0.91427335  1
  C  C2  1  0.49999999  0.31586725  0.70856928  1
  C  C3  1  0.50000000  0.31469416  0.21001171  1
  C  C4  1  0.50000000  0.31593625  0.95690750  1
  C  C5  1  0.50000000  0.31578386  0.46207322  1
  C  C6  1  0.49999999  0.28567830  0.58582819  1
  C  C7  1  0.50000001  0.28569088  0.83510544  1
  C  C8  1  0.50000000  0.34676301  0.66750396  1
  C  C9  1  0.50000000  0.34445560  0.16636929  1
  C  C10  1  0.50000000  0.34673076  0.91535208  1
  C  C11  1  0.50000000  0.34498457  0.41836414  1
  C  C12  1  0.50000000  0.37771550  0.70873015  1
  C  C13  1  0.50000000  0.37491514  0.20827286  1
  C  C14  1  0.50000000  0.37708462  0.95776018  1
  C  C15  1  0.50000000  0.37617214  0.45944581  1
  C  C16  1  0.50000000  0.31595753  0.54322250  1
  C  C17  1  0.50000000  0.31574973  0.03804887  1
  C  C18  1  0.50000000  0.31586729  0.79155821  1
  C  C19  1  0.50000000  0.31471363  0.29013452  1
  C  C20  1  0.50000000  0.34674387  0.58479877  1
  C  C21  1  0.49999999  0.34495760  0.08179486  1
  C  C22  1  0.50000000  0.34675596  0.83263897  1
  C  C23  1  0.50000000  0.34447596  0.33376313  1
  C  C24  1  0.50000000  0.40839521  0.66685439  1
  C  C25  1  0.50000000  0.40570530  0.16629661  1
  C  C26  1  0.50000000  0.40813668  0.91625101  1
  C  C27  1  0.50000000  0.40649800  0.41709488  1
  C  C28  1  0.50000000  0.43944285  0.70825870  1
  C  C29  1  0.50000000  0.43583137  0.20843150  1
  C  C30  1  0.50000001  0.43862261  0.95841381  1
  C  C31  1  0.49999999  0.43735981  0.45891088  1
  C  C32  1  0.50000000  0.37710202  0.54244085  1
  C  C33  1  0.50000000  0.37614619  0.04071483  1
  C  C34  1  0.50000000  0.37772051  0.79143093  1
  C  C35  1  0.50000000  0.37492016  0.29184253  1
  C  C36  1  0.50000000  0.40813352  0.58393983  1
  C  C37  1  0.50000000  0.40647919  0.08307417  1
  C  C38  1  0.50000000  0.40839818  0.83330823  1
  C  C39  1  0.50000000  0.40570492  0.33386571  1
  C  C40  1  0.49999999  0.47001092  0.66629856  1
  C  C41  1  0.50000001  0.46634663  0.16621969  1
  C  C42  1  0.50000001  0.47003029  0.91760940  1
  C  C43  1  0.49999999  0.46763942  0.41684558  1
  C  C44  1  0.49999999  0.50086203  0.70854626  1
  C  C45  1  0.50000000  0.49598399  0.20940818  1
  C  C46  1  0.50000002  0.50059578  0.95988987  1
  C  C47  1  0.49999999  0.49898404  0.45699081  1
  C  C48  1  0.49999999  0.43860622  0.54180489  1
  C  C49  1  0.50000001  0.43734984  0.04128225  1
  C  C50  1  0.50000000  0.43943854  0.79191211  1
  C  C51  1  0.50000000  0.43583590  0.29178126  1
  C  C52  1  0.49999998  0.47004692  0.58255255  1
  C  C53  1  0.50000001  0.46762338  0.08338770  1
  C  C54  1  0.50000000  0.47000617  0.83387773  1
  C  C55  1  0.50000000  0.46635979  0.33399394  1
  C  C56  1  0.50000000  0.53162299  0.66756655  1
  C  C57  1  0.49999999  0.52623103  0.17017460  1
  C  C58  1  0.50000001  0.53199915  0.91631190  1
  C  C59  1  0.50000001  0.52727914  0.40817242  1
  C  C60  1  0.50000001  0.56246744  0.70905610  1
  C  C61  1  0.50000002  0.56354305  0.94922808  1
  C  C62  1  0.49999997  0.50064616  0.54031725  1
  C  C63  1  0.50000002  0.49896467  0.04321772  1
  C  C64  1  0.50000000  0.50084541  0.79164947  1
  C  C65  1  0.50000000  0.49600724  0.29082308  1
  C  C66  1  0.49999997  0.53204925  0.58390550  1
  C  C67  1  0.50000000  0.52725948  0.09206306  1
  C  C68  1  0.50000000  0.53160026  0.83266533  1
  C  C69  1  0.50000002  0.52625117  0.33004590  1
  C  C70  1  0.50000003  0.59406576  0.67100592  1
  C  C71  1  0.50000001  0.59418470  0.91088235  1
  C  C72  1  0.50000005  0.62511103  0.70930535  1
  C  C73  1  0.49999999  0.62398527  0.95288554  1
  C  C74  1  0.49999994  0.56361169  0.55104259  1
  C  C75  1  0.50000001  0.56245269  0.79122550  1
  C  C76  1  0.50000000  0.59424164  0.58946929  1
  C  C77  1  0.50000002  0.59403588  0.82934271  1
  C  C78  1  0.50000006  0.65573023  0.66789628  1
  C  C79  1  0.50000001  0.65500990  0.91556080  1
  C  C80  1  0.50000007  0.68692792  0.70792538  1
  C  C81  1  0.49999997  0.68539078  0.95724948  1
  C  C82  1  0.49999999  0.62407120  0.54755730  1
  C  C83  1  0.50000005  0.62509292  0.79110955  1
  C  C84  1  0.50000001  0.65508431  0.58495050  1
  C  C85  1  0.50000005  0.65568927  0.83261106  1
  C  C86  1  0.50000006  0.71618501  0.66390290  1
  C  C87  1  0.50000000  0.71535889  0.91797576  1
  C  C88  1  0.49999994  0.68548878  0.54334003  1
  C  C89  1  0.50000008  0.68690732  0.79266718  1
  C  C90  1  0.49999996  0.71543848  0.58269613  1
  C  C91  1  0.50000007  0.71614280  0.83676944  1
  H  H92  1  0.49999997  0.26174308  0.69472053  1
  H  H93  1  0.50000002  0.26207511  0.94609416  1
  H  H94  1  0.49999999  0.26210721  0.55398709  1
  H  H95  1  0.50000002  0.26175303  0.80527077  1
  H  H96  1  0.50000011  0.74049160  0.69231767  1
  H  H97  1  0.49999995  0.73882000  0.95016790  1
  H  H98  1  0.49999990  0.73892519  0.55059837  1
  H  H99  1  0.50000010  0.74045939  0.80840799  1
  H  H100  1  0.49999982  0.68470632  0.48011632  1
  H  H101  1  0.50000000  0.29059776  0.18062459  1
  H  H102  1  0.50000001  0.29150005  0.43357316  1
  H  H103  1  0.50000000  0.29144621  0.06648451  1
  H  H104  1  0.50000001  0.29064857  0.31958632  1
  H  H105  1  0.49999997  0.62332612  0.48427613  1
  H  H106  1  0.49999996  0.54998112  0.20028304  1
  H  H107  1  0.50000005  0.55236514  0.42756670  1
  H  H108  1  0.49999997  0.55235908  0.07274012  1
  H  H109  1  0.50000005  0.55000553  0.29992442  1
  H  H110  1  0.49999986  0.56807636  0.49060872  1
  H  H111  1  0.50000008  0.56797849  0.00964439  1
  H  H112  1  0.49999996  0.62321028  0.01616635  1
  H  H113  1  0.49999989  0.68455942  0.02046183  1
