# generated using pymatgen
data_H13C36
_symmetry_space_group_name_H-M   'P 1'
_cell_length_a   20.00000000
_cell_length_b   40.19450000
_cell_length_c   17.32968683
_cell_angle_alpha   90.00000000
_cell_angle_beta   90.00000000
_cell_angle_gamma   90.00000000
_symmetry_Int_Tables_number   1
_chemical_formula_structural   H13C36
_chemical_formula_sum   'H26 C72'
_cell_volume   13931.16194891
_cell_formula_units_Z   2
loop_
 _symmetry_equiv_pos_site_id
 _symmetry_equiv_pos_as_xyz
  1  'x, y, z'
loop_
 _atom_site_type_symbol
 _atom_site_label
 _atom_site_symmetry_multiplicity
 _atom_site_fract_x
 _atom_site_fract_y
 _atom_site_fract_z
 _atom_site_occupancy
  C  C0  1  0.50000003  0.28528868  0.66694933  1
  C  C1  1  0.50000009  0.28552211  0.91923551  1
  C  C2  1  0.50000007  0.31464327  0.71054608  1
  C  C3  1  0.50000011  0.31549085  0.95868231  1
  C  C4  1  0.49999986  0.28576807  0.58587049  1
  C  C5  1  0.50000015  0.28507693  0.83818959  1
  C  C6  1  0.49999997  0.34587250  0.67076724  1
  C  C7  1  0.50000016  0.34596840  0.91755367  1
  C  C8  1  0.50000005  0.37684090  0.71126103  1
  C  C9  1  0.50000004  0.37676767  0.95677977  1
  C  C10  1  0.49999972  0.31578040  0.54667487  1
  C  C11  1  0.50000019  0.31452636  0.79493659  1
  C  C12  1  0.49999981  0.34615491  0.58810819  1
  C  C13  1  0.50000020  0.34572052  0.83483320  1
  C  C14  1  0.50000001  0.40748490  0.67028685  1
  C  C15  1  0.50000005  0.40709657  0.91850355  1
  C  C16  1  0.50000001  0.43854312  0.71153386  1
  C  C17  1  0.49999999  0.43943879  0.21252817  1
  C  C18  1  0.49999995  0.43868422  0.96049891  1
  C  C19  1  0.50000005  0.43955097  0.46431138  1
  C  C20  1  0.49999987  0.37695049  0.54900224  1
  C  C21  1  0.50000013  0.37674522  0.79442106  1
  C  C22  1  0.49999996  0.40726246  0.58726811  1
  C  C23  1  0.50000008  0.40737211  0.83543308  1
  C  C24  1  0.50000001  0.46925841  0.67036062  1
  C  C25  1  0.50000000  0.46916310  0.16926391  1
  C  C26  1  0.49999991  0.46920071  0.91861675  1
  C  C27  1  0.50000005  0.46924757  0.42177364  1
  C  C28  1  0.49999999  0.50009873  0.71146977  1
  C  C29  1  0.50000001  0.49890224  0.21245359  1
  C  C30  1  0.49999991  0.49970252  0.96054843  1
  C  C31  1  0.50000005  0.49902402  0.46413032  1
  C  C32  1  0.50000005  0.43884464  0.54520603  1
  C  C33  1  0.49999997  0.43941775  0.04133587  1
  C  C34  1  0.50000001  0.43849755  0.79428880  1
  C  C35  1  0.50000000  0.43945664  0.29291206  1
  C  C36  1  0.50000006  0.46934724  0.58712250  1
  C  C37  1  0.49999996  0.46915508  0.08368729  1
  C  C38  1  0.49999996  0.46919711  0.83543806  1
  C  C39  1  0.50000002  0.46920133  0.33614562  1
  C  C40  1  0.49999996  0.53101183  0.67022544  1
  C  C41  1  0.50000001  0.53131235  0.91855463  1
  C  C42  1  0.49999996  0.56165172  0.71139109  1
  C  C43  1  0.50000004  0.56158680  0.95678792  1
  C  C44  1  0.50000006  0.49984363  0.54498249  1
  C  C45  1  0.49999994  0.49891051  0.04134471  1
  C  C46  1  0.49999999  0.50006161  0.79435008  1
  C  C47  1  0.50000001  0.49892317  0.29283590  1
  C  C48  1  0.49999998  0.53145948  0.58696479  1
  C  C49  1  0.50000006  0.53095982  0.83537546  1
  C  C50  1  0.49999982  0.59269069  0.67122384  1
  C  C51  1  0.50000031  0.59249986  0.91753272  1
  C  C52  1  0.49999993  0.62343777  0.71157921  1
  C  C53  1  0.50000040  0.62272845  0.95764540  1
  C  C54  1  0.49999992  0.56178123  0.54892946  1
  C  C55  1  0.50000012  0.56160870  0.79421442  1
  C  C56  1  0.49999970  0.59272675  0.58823053  1
  C  C57  1  0.50000031  0.59257732  0.83455987  1
  C  C58  1  0.49999973  0.65416997  0.67060855  1
  C  C59  1  0.50000054  0.65350357  0.91887894  1
  C  C60  1  0.49999996  0.68531681  0.71102709  1
  C  C61  1  0.50000046  0.68401742  0.96014688  1
  C  C62  1  0.49999952  0.62306112  0.54834589  1
  C  C63  1  0.50000029  0.62338091  0.79446364  1
  C  C64  1  0.49999945  0.65383214  0.58740504  1
  C  C65  1  0.50000046  0.65402585  0.83573122  1
  C  C66  1  0.49999996  0.71474895  0.66781034  1
  C  C67  1  0.50000027  0.71395349  0.92081145  1
  C  C68  1  0.49999938  0.68454853  0.54674481  1
  C  C69  1  0.50000026  0.68525840  0.79576088  1
  C  C70  1  0.49999967  0.71438012  0.58659959  1
  C  C71  1  0.50000019  0.71455372  0.83957097  1
  H  H72  1  0.50000021  0.26113367  0.69602021  1
  H  H73  1  0.49999993  0.26196519  0.95108077  1
  H  H74  1  0.49999989  0.26226244  0.55381466  1
  H  H75  1  0.50000004  0.26093147  0.80901332  1
  H  H76  1  0.50000031  0.73885279  0.69714924  1
  H  H77  1  0.50000008  0.73745366  0.95292042  1
  H  H78  1  0.49999978  0.73802177  0.55502179  1
  H  H79  1  0.49999992  0.73879964  0.81086993  1
  H  H80  1  0.49999919  0.68422237  0.48348389  1
  H  H81  1  0.49999958  0.31653817  0.48342743  1
  H  H82  1  0.49999961  0.62288092  0.48501964  1
  H  H83  1  0.49999999  0.37593070  0.48597935  1
  H  H84  1  0.49999997  0.41525434  0.18348694  1
  H  H85  1  0.50000003  0.41599541  0.43320411  1
  H  H86  1  0.50000002  0.41592130  0.07265869  1
  H  H87  1  0.49999998  0.41525356  0.32187202  1
  H  H88  1  0.50000013  0.56283287  0.48590760  1
  H  H89  1  0.50000001  0.52307300  0.18336102  1
  H  H90  1  0.50000003  0.52255942  0.43295491  1
  H  H91  1  0.49999999  0.52238502  0.07276715  1
  H  H92  1  0.49999999  0.52313396  0.32173529  1
  H  H93  1  0.49999999  0.31606260  0.02192937  1
  H  H94  1  0.49999982  0.37572887  0.01983865  1
  H  H95  1  0.49999975  0.56267085  0.01983806  1
  H  H96  1  0.50000015  0.62252735  0.02093649  1
  H  H97  1  0.50000048  0.68329011  0.02338402  1
