# generated using pymatgen
data_H13C38
_symmetry_space_group_name_H-M   'P 1'
_cell_length_a   20.00000000
_cell_length_b   40.19450000
_cell_length_c   17.52020967
_cell_angle_alpha   90.00000000
_cell_angle_beta   90.00000000
_cell_angle_gamma   90.00000000
_symmetry_Int_Tables_number   1
_chemical_formula_structural   H13C38
_chemical_formula_sum   'H26 C76'
_cell_volume   14084.32134841
_cell_formula_units_Z   2
loop_
 _symmetry_equiv_pos_site_id
 _symmetry_equiv_pos_as_xyz
  1  'x, y, z'
loop_
 _atom_site_type_symbol
 _atom_site_label
 _atom_site_symmetry_multiplicity
 _atom_site_fract_x
 _atom_site_fract_y
 _atom_site_fract_z
 _atom_site_occupancy
  C  C0  1  0.49999998  0.28677910  0.66728814  1
  C  C1  1  0.50000003  0.28609834  0.91075210  1
  C  C2  1  0.50000000  0.31742729  0.70873039  1
  C  C3  1  0.50000001  0.31008336  0.21012803  1
  C  C4  1  0.50000002  0.31602887  0.95462547  1
  C  C5  1  0.49999998  0.31402548  0.46532086  1
  C  C6  1  0.49999998  0.28612642  0.58930010  1
  C  C7  1  0.50000002  0.28675395  0.83274572  1
  C  C8  1  0.49999999  0.34785265  0.66719726  1
  C  C9  1  0.50000002  0.33992181  0.16552511  1
  C  C10  1  0.50000001  0.34766890  0.91564738  1
  C  C11  1  0.49999998  0.34231863  0.41887093  1
  C  C12  1  0.49999998  0.37868563  0.70877027  1
  C  C13  1  0.50000000  0.36953262  0.20920380  1
  C  C14  1  0.50000002  0.37755401  0.95976536  1
  C  C15  1  0.50000001  0.37448812  0.45739768  1
  C  C16  1  0.49999999  0.31604438  0.54533607  1
  C  C17  1  0.50000003  0.31399881  0.03462918  1
  C  C18  1  0.50000000  0.31742373  0.79130260  1
  C  C19  1  0.49999999  0.31009179  0.28990622  1
  C  C20  1  0.49999999  0.34767116  0.58434092  1
  C  C21  1  0.50000002  0.34229561  0.08110540  1
  C  C22  1  0.50000000  0.34785910  0.83278150  1
  C  C23  1  0.49999998  0.33993026  0.33451763  1
  C  C24  1  0.49999996  0.40907856  0.66714523  1
  C  C25  1  0.49999996  0.40021262  0.17017806  1
  C  C26  1  0.50000005  0.40934995  0.91636198  1
  C  C27  1  0.50000009  0.40231127  0.40716317  1
  C  C28  1  0.49999998  0.43980014  0.70900962  1
  C  C29  1  0.50000015  0.44085264  0.94924067  1
  C  C30  1  0.49999997  0.37757392  0.54025856  1
  C  C31  1  0.49999999  0.37446747  0.04262109  1
  C  C32  1  0.50000000  0.37870762  0.79115067  1
  C  C33  1  0.49999999  0.36954122  0.29083426  1
  C  C34  1  0.49999992  0.40936474  0.58370271  1
  C  C35  1  0.49999992  0.40227733  0.09286716  1
  C  C36  1  0.50000002  0.40908961  0.83294352  1
  C  C37  1  0.50000005  0.40022444  0.32985214  1
  C  C38  1  0.49999995  0.47104707  0.67089629  1
  C  C39  1  0.50000011  0.47143797  0.91028505  1
  C  C40  1  0.49999998  0.50209324  0.70956355  1
  C  C41  1  0.50000014  0.50147397  0.95111020  1
  C  C42  1  0.49999982  0.44087646  0.55084296  1
  C  C43  1  0.50000000  0.43980508  0.79110689  1
  C  C44  1  0.49999987  0.47144841  0.58982070  1
  C  C45  1  0.50000004  0.47105584  0.82921818  1
  C  C46  1  0.49999994  0.53263821  0.66891362  1
  C  C47  1  0.50000011  0.53252804  0.91366670  1
  C  C48  1  0.49999998  0.56331243  0.70920077  1
  C  C49  1  0.50000012  0.56299476  0.95298761  1
  C  C50  1  0.49999985  0.50150341  0.54901465  1
  C  C51  1  0.50000002  0.50209637  0.79054326  1
  C  C52  1  0.49999989  0.53255578  0.58646334  1
  C  C53  1  0.50000007  0.53263025  0.83121355  1
  C  C54  1  0.49999993  0.59404520  0.66872418  1
  C  C55  1  0.50000013  0.59376159  0.91409729  1
  C  C56  1  0.49999997  0.62466151  0.70899599  1
  C  C57  1  0.50000016  0.62431076  0.95316463  1
  C  C58  1  0.49999988  0.56302876  0.54716404  1
  C  C59  1  0.50000007  0.56331196  0.79095860  1
  C  C60  1  0.49999988  0.59379072  0.58608499  1
  C  C61  1  0.50000012  0.59403577  0.83145469  1
  C  C62  1  0.49999993  0.65544129  0.66838980  1
  C  C63  1  0.50000016  0.65496211  0.91422196  1
  C  C64  1  0.50000000  0.68652959  0.70822155  1
  C  C65  1  0.50000016  0.68560890  0.95464676  1
  C  C66  1  0.49999982  0.62435059  0.54706707  1
  C  C67  1  0.50000010  0.62465600  0.79121348  1
  C  C68  1  0.49999984  0.65499234  0.58604431  1
  C  C69  1  0.50000012  0.65542758  0.83187275  1
  C  C70  1  0.49999999  0.71597183  0.66521139  1
  C  C71  1  0.50000010  0.71550198  0.91541331  1
  C  C72  1  0.49999980  0.68564491  0.54565391  1
  C  C73  1  0.50000007  0.68652418  0.79208582  1
  C  C74  1  0.49999988  0.71552889  0.58492874  1
  C  C75  1  0.50000006  0.71595768  0.83513213  1
  H  H76  1  0.49999998  0.26313718  0.69795542  1
  H  H77  1  0.50000002  0.26218442  0.94090016  1
  H  H78  1  0.49999998  0.26222294  0.55915146  1
  H  H79  1  0.50000002  0.26310322  0.80210384  1
  H  H80  1  0.50000005  0.74009764  0.69409404  1
  H  H81  1  0.50000007  0.73908452  0.94687326  1
  H  H82  1  0.49999988  0.73910992  0.55347145  1
  H  H83  1  0.50000003  0.74009212  0.80628971  1
  H  H84  1  0.49999973  0.68511297  0.48309064  1
  H  H85  1  0.50000001  0.28581977  0.18164004  1
  H  H86  1  0.49999998  0.28912040  0.43989592  1
  H  H87  1  0.50000003  0.28911454  0.06009299  1
  H  H88  1  0.49999999  0.28583075  0.31840179  1
  H  H89  1  0.49999980  0.62435901  0.48444802  1
  H  H90  1  0.49999990  0.56301551  0.48456184  1
  H  H91  1  0.49999984  0.50083987  0.48639617  1
  H  H92  1  0.49999991  0.42370351  0.20106704  1
  H  H93  1  0.50000027  0.42754820  0.42644579  1
  H  H94  1  0.49999977  0.42751646  0.07351624  1
  H  H95  1  0.50000010  0.42369691  0.29889687  1
  H  H96  1  0.49999964  0.44498660  0.49051593  1
  H  H97  1  0.50000031  0.44499456  0.00955131  1
  H  H98  1  0.50000014  0.50081601  0.01373090  1
  H  H99  1  0.50000011  0.56295875  0.01559243  1
  H  H100  1  0.50000016  0.62430125  0.01578391  1
  H  H101  1  0.50000015  0.68507294  0.01721190  1
