# generated using pymatgen
data_HC6
_symmetry_space_group_name_H-M   'P 1'
_cell_length_a   20.00000000
_cell_length_b   40.19450000
_cell_length_c   17.17493548
_cell_angle_alpha   90.00000000
_cell_angle_beta   90.00000000
_cell_angle_gamma   90.00000000
_symmetry_Int_Tables_number   1
_chemical_formula_structural   HC6
_chemical_formula_sum   'H18 C108'
_cell_volume   13806.75888115
_cell_formula_units_Z   18
loop_
 _symmetry_equiv_pos_site_id
 _symmetry_equiv_pos_as_xyz
  1  'x, y, z'
loop_
 _atom_site_type_symbol
 _atom_site_label
 _atom_site_symmetry_multiplicity
 _atom_site_fract_x
 _atom_site_fract_y
 _atom_site_fract_z
 _atom_site_occupancy
  C  C0  1  0.50000000  0.28566157  0.66518300  1
  C  C1  1  0.50000000  0.28548477  0.16512542  1
  C  C2  1  0.50000001  0.28554470  0.91516225  1
  C  C3  1  0.50000001  0.28559654  0.41530623  1
  C  C4  1  0.50000001  0.31562824  0.70825977  1
  C  C5  1  0.50000000  0.31549275  0.20825173  1
  C  C6  1  0.50000001  0.31553423  0.95819797  1
  C  C7  1  0.50000001  0.31561863  0.45824277  1
  C  C8  1  0.50000001  0.28563215  0.58506746  1
  C  C9  1  0.50000001  0.28551137  0.08503381  1
  C  C10  1  0.50000001  0.28555939  0.83505205  1
  C  C11  1  0.50000000  0.28561158  0.33519163  1
  C  C12  1  0.50000002  0.34631320  0.66699625  1
  C  C13  1  0.49999999  0.34617787  0.16692060  1
  C  C14  1  0.50000002  0.34620364  0.91690110  1
  C  C15  1  0.50000000  0.34627846  0.41691862  1
  C  C16  1  0.50000002  0.37717479  0.70887179  1
  C  C17  1  0.49999999  0.37706914  0.20875627  1
  C  C18  1  0.50000001  0.37706847  0.95874934  1
  C  C19  1  0.50000000  0.37714346  0.45881468  1
  C  C20  1  0.50000002  0.31564432  0.54214069  1
  C  C21  1  0.50000001  0.31552394  0.04208878  1
  C  C22  1  0.50000001  0.31557007  0.79211282  1
  C  C23  1  0.50000000  0.31559823  0.29219143  1
  C  C24  1  0.50000002  0.34630059  0.58360209  1
  C  C25  1  0.50000000  0.34617066  0.08351549  1
  C  C26  1  0.50000001  0.34623237  0.83353161  1
  C  C27  1  0.49999999  0.34627620  0.33353463  1
  C  C28  1  0.50000002  0.40785327  0.66720923  1
  C  C29  1  0.50000000  0.40774616  0.16709693  1
  C  C30  1  0.50000000  0.40776024  0.91710516  1
  C  C31  1  0.49999999  0.40780951  0.41714496  1
  C  C32  1  0.50000002  0.43851884  0.70885742  1
  C  C33  1  0.50000002  0.43840809  0.20870502  1
  C  C34  1  0.49999999  0.43841424  0.95872552  1
  C  C35  1  0.49999999  0.43845210  0.45884322  1
  C  C36  1  0.50000001  0.37716800  0.54183166  1
  C  C37  1  0.50000000  0.37705082  0.04176325  1
  C  C38  1  0.50000002  0.37713411  0.79185045  1
  C  C39  1  0.50000000  0.37712309  0.29172379  1
  C  C40  1  0.50000002  0.40783275  0.58364184  1
  C  C41  1  0.50000000  0.40771808  0.08353456  1
  C  C42  1  0.50000001  0.40779695  0.83359322  1
  C  C43  1  0.49999999  0.40779194  0.33353260  1
  C  C44  1  0.50000001  0.46933015  0.66715475  1
  C  C45  1  0.50000001  0.46919829  0.16695991  1
  C  C46  1  0.50000000  0.46922070  0.91695907  1
  C  C47  1  0.49999999  0.46923619  0.41713508  1
  C  C48  1  0.50000001  0.50004080  0.70881458  1
  C  C49  1  0.50000001  0.49989881  0.20866157  1
  C  C50  1  0.49999999  0.49988527  0.95860851  1
  C  C51  1  0.49999997  0.49989351  0.45894920  1
  C  C52  1  0.50000000  0.43849686  0.54210348  1
  C  C53  1  0.50000000  0.43837906  0.04198712  1
  C  C54  1  0.50000002  0.43849316  0.79207065  1
  C  C55  1  0.50000000  0.43844584  0.29200196  1
  C  C56  1  0.49999999  0.46929001  0.58400570  1
  C  C57  1  0.50000001  0.46916041  0.08380135  1
  C  C58  1  0.50000001  0.46929208  0.83381695  1
  C  C59  1  0.49999999  0.46924052  0.33395071  1
  C  C60  1  0.49999999  0.53076340  0.66732792  1
  C  C61  1  0.50000000  0.53048540  0.16707915  1
  C  C62  1  0.50000000  0.53053892  0.91691279  1
  C  C63  1  0.49999999  0.53053694  0.41744470  1
  C  C64  1  0.50000000  0.56166540  0.70912207  1
  C  C65  1  0.49999998  0.56138734  0.20900329  1
  C  C66  1  0.49999999  0.56134580  0.95868897  1
  C  C67  1  0.49999999  0.56128899  0.45955548  1
  C  C68  1  0.49999996  0.49998962  0.54249466  1
  C  C69  1  0.50000000  0.49981855  0.04213914  1
  C  C70  1  0.50000003  0.50001740  0.79223157  1
  C  C71  1  0.50000000  0.49995246  0.29241750  1
  C  C72  1  0.49999998  0.53065826  0.58428297  1
  C  C73  1  0.50000000  0.53041950  0.08384835  1
  C  C74  1  0.50000001  0.53070528  0.83384775  1
  C  C75  1  0.49999999  0.53054378  0.33422894  1
  C  C76  1  0.49999999  0.59246289  0.66796153  1
  C  C77  1  0.50000000  0.59197131  0.16750824  1
  C  C78  1  0.50000000  0.59206377  0.91703218  1
  C  C79  1  0.50000000  0.59206741  0.41842129  1
  C  C80  1  0.49999998  0.62327840  0.70955621  1
  C  C81  1  0.50000003  0.62189971  0.21048562  1
  C  C82  1  0.50000000  0.62256670  0.95927774  1
  C  C83  1  0.50000001  0.62176514  0.46104418  1
  C  C84  1  0.49999998  0.56152795  0.54270709  1
  C  C85  1  0.49999998  0.56112830  0.04182198  1
  C  C86  1  0.50000001  0.56162573  0.79218034  1
  C  C87  1  0.49999999  0.56145814  0.29247181  1
  C  C88  1  0.49999998  0.59226929  0.58446441  1
  C  C89  1  0.49999998  0.59186914  0.08305033  1
  C  C90  1  0.50000002  0.59235368  0.83358269  1
  C  C91  1  0.50000000  0.59210934  0.33395058  1
  C  C92  1  0.49999998  0.65434390  0.66757994  1
  C  C93  1  0.50000000  0.65419503  0.91783939  1
  C  C94  1  0.50000000  0.68519292  0.70893609  1
  C  C95  1  0.50000005  0.68473519  0.95781348  1
  C  C96  1  0.49999999  0.62286040  0.54233287  1
  C  C97  1  0.49999998  0.62151518  0.04047771  1
  C  C98  1  0.50000001  0.62324058  0.79239908  1
  C  C99  1  0.50000000  0.62198444  0.29077264  1
  C  C100  1  0.49999999  0.65444881  0.58438939  1
  C  C101  1  0.49999999  0.65423240  0.83478806  1
  C  C102  1  0.50000001  0.71512077  0.66666708  1
  C  C103  1  0.50000007  0.71480246  0.91774266  1
  C  C104  1  0.49999991  0.68513568  0.54501902  1
  C  C105  1  0.49999999  0.68517761  0.79391280  1
  C  C106  1  0.49999988  0.71510132  0.58562750  1
  C  C107  1  0.50000000  0.71501830  0.83665886  1
  H  H108  1  0.49999999  0.26173526  0.69528138  1
  H  H109  1  0.50000000  0.26149347  0.19506871  1
  H  H110  1  0.50000000  0.26159845  0.94518956  1
  H  H111  1  0.50000002  0.26165721  0.44538743  1
  H  H112  1  0.50000000  0.26170897  0.55489508  1
  H  H113  1  0.50000001  0.26158779  0.05491008  1
  H  H114  1  0.50000000  0.26158788  0.80505207  1
  H  H115  1  0.50000000  0.26169697  0.30498762  1
  H  H116  1  0.50000014  0.73901014  0.69703194  1
  H  H117  1  0.50000017  0.73831844  0.95012431  1
  H  H118  1  0.49999973  0.73873790  0.55381545  1
  H  H119  1  0.49999996  0.73902059  0.80678625  1
  H  H120  1  0.49999987  0.68600756  0.48141294  1
  H  H121  1  0.50000008  0.64586895  0.18049277  1
  H  H122  1  0.49999999  0.64516470  0.42915214  1
  H  H123  1  0.49999999  0.64496129  0.07206079  1
  H  H124  1  0.49999999  0.64603182  0.32050181  1
  H  H125  1  0.50000009  0.68537283  0.02142351  1
