# generated using pymatgen
data_H13C40
_symmetry_space_group_name_H-M   'P 1'
_cell_length_a   20.00000000
_cell_length_b   40.19450000
_cell_length_c   17.46447963
_cell_angle_alpha   90.00000000
_cell_angle_beta   90.00000000
_cell_angle_gamma   90.00000000
_symmetry_Int_Tables_number   1
_chemical_formula_structural   H13C40
_chemical_formula_sum   'H26 C80'
_cell_volume   14039.52052995
_cell_formula_units_Z   2
loop_
 _symmetry_equiv_pos_site_id
 _symmetry_equiv_pos_as_xyz
  1  'x, y, z'
loop_
 _atom_site_type_symbol
 _atom_site_label
 _atom_site_symmetry_multiplicity
 _atom_site_fract_x
 _atom_site_fract_y
 _atom_site_fract_z
 _atom_site_occupancy
  C  C0  1  0.50000000  0.28685410  0.66655024  1
  C  C1  1  0.49999999  0.28184517  0.16169407  1
  C  C2  1  0.50000002  0.28621989  0.91215825  1
  C  C3  1  0.50000000  0.28330216  0.41780028  1
  C  C4  1  0.50000000  0.31715953  0.70830216  1
  C  C5  1  0.50000000  0.31108019  0.20788570  1
  C  C6  1  0.50000002  0.31563929  0.95688414  1
  C  C7  1  0.49999999  0.31374445  0.46017173  1
  C  C8  1  0.49999999  0.28623460  0.58781003  1
  C  C9  1  0.49999999  0.28328899  0.08222985  1
  C  C10  1  0.50000002  0.28684764  0.83341547  1
  C  C11  1  0.50000000  0.28185454  0.33832928  1
  C  C12  1  0.50000000  0.34747278  0.66633115  1
  C  C13  1  0.50000001  0.34191840  0.16601938  1
  C  C14  1  0.50000002  0.34713671  0.91711255  1
  C  C15  1  0.49999998  0.34372968  0.41720095  1
  C  C16  1  0.50000001  0.37831226  0.70863407  1
  C  C17  1  0.50000001  0.37169924  0.20950945  1
  C  C18  1  0.50000001  0.37761063  0.96005576  1
  C  C19  1  0.50000000  0.37541498  0.45713445  1
  C  C20  1  0.49999999  0.31565832  0.54310653  1
  C  C21  1  0.50000001  0.31372121  0.03983030  1
  C  C22  1  0.50000002  0.31715308  0.79166500  1
  C  C23  1  0.49999999  0.31108601  0.29214650  1
  C  C24  1  0.49999999  0.34715341  0.58288310  1
  C  C25  1  0.50000002  0.34371247  0.08279396  1
  C  C26  1  0.50000001  0.34745722  0.83365125  1
  C  C27  1  0.49999998  0.34192906  0.33399584  1
  C  C28  1  0.50000002  0.40878928  0.66735818  1
  C  C29  1  0.49999997  0.40204794  0.17004569  1
  C  C30  1  0.50000001  0.40908872  0.91619294  1
  C  C31  1  0.50000006  0.40347914  0.40757435  1
  C  C32  1  0.49999997  0.43960439  0.70899900  1
  C  C33  1  0.50000015  0.44066276  0.94897319  1
  C  C34  1  0.50000000  0.37763046  0.53995086  1
  C  C35  1  0.50000000  0.37540016  0.04287525  1
  C  C36  1  0.49999998  0.37830623  0.79136583  1
  C  C37  1  0.49999999  0.37171101  0.29051138  1
  C  C38  1  0.49999998  0.40910782  0.58382297  1
  C  C39  1  0.49999994  0.40346280  0.09242579  1
  C  C40  1  0.49999997  0.40877687  0.83265629  1
  C  C41  1  0.50000003  0.40206858  0.32996496  1
  C  C42  1  0.49999986  0.47092993  0.67092660  1
  C  C43  1  0.50000017  0.47126177  0.91036053  1
  C  C44  1  0.49999986  0.50195024  0.70948668  1
  C  C45  1  0.50000023  0.50124037  0.95150201  1
  C  C46  1  0.49999985  0.44069000  0.55106943  1
  C  C47  1  0.50000001  0.43959637  0.79103686  1
  C  C48  1  0.49999982  0.47129093  0.58969832  1
  C  C49  1  0.50000012  0.47091387  0.82914194  1
  C  C50  1  0.49999972  0.53245159  0.66865562  1
  C  C51  1  0.50000032  0.53229558  0.91411647  1
  C  C52  1  0.49999982  0.56306384  0.70907888  1
  C  C53  1  0.50000037  0.56272655  0.95352584  1
  C  C54  1  0.49999976  0.50127511  0.54858707  1
  C  C55  1  0.50000013  0.50193849  0.79061856  1
  C  C56  1  0.49999966  0.53232544  0.58601050  1
  C  C57  1  0.50000027  0.53243147  0.83147417  1
  C  C58  1  0.49999964  0.59378640  0.66854143  1
  C  C59  1  0.50000050  0.59346359  0.91450069  1
  C  C60  1  0.49999981  0.62439592  0.70889787  1
  C  C61  1  0.50000044  0.62395992  0.95376397  1
  C  C62  1  0.49999962  0.56276903  0.54663632  1
  C  C63  1  0.50000020  0.56305991  0.79108005  1
  C  C64  1  0.49999952  0.59350157  0.58568146  1
  C  C65  1  0.50000041  0.59377168  0.83164387  1
  C  C66  1  0.49999968  0.65514944  0.66813854  1
  C  C67  1  0.50000044  0.65458884  0.91472337  1
  C  C68  1  0.49999988  0.68626139  0.70804938  1
  C  C69  1  0.50000034  0.68517662  0.95540615  1
  C  C70  1  0.49999955  0.62400516  0.54645820  1
  C  C71  1  0.50000023  0.62438806  0.79131895  1
  C  C72  1  0.49999956  0.65462486  0.58553775  1
  C  C73  1  0.50000035  0.65513774  0.83212078  1
  C  C74  1  0.49999987  0.71567075  0.66479796  1
  C  C75  1  0.50000020  0.71506712  0.91611093  1
  C  C76  1  0.49999962  0.68522158  0.54488900  1
  C  C77  1  0.50000018  0.68624964  0.79224334  1
  C  C78  1  0.49999978  0.71511007  0.58421498  1
  C  C79  1  0.50000018  0.71565434  0.83552775  1
  H  H80  1  0.50000001  0.26312098  0.69694352  1
  H  H81  1  0.49999998  0.25719908  0.18862751  1
  H  H82  1  0.50000001  0.26198476  0.94055633  1
  H  H83  1  0.50000002  0.25964210  0.44881641  1
  H  H84  1  0.50000000  0.26199821  0.55940221  1
  H  H85  1  0.49999998  0.25963126  0.05120426  1
  H  H86  1  0.50000000  0.26309980  0.80305318  1
  H  H87  1  0.50000002  0.25721732  0.31137286  1
  H  H88  1  0.50000011  0.73987600  0.69350216  1
  H  H89  1  0.49999999  0.73859008  0.94783001  1
  H  H90  1  0.49999996  0.73864239  0.55252919  1
  H  H91  1  0.49999997  0.73986843  0.80687140  1
  H  H92  1  0.49999960  0.68456959  0.48213906  1
  H  H93  1  0.49999985  0.62400967  0.48363274  1
  H  H94  1  0.49999995  0.56272778  0.48386760  1
  H  H95  1  0.49999972  0.50053869  0.48579257  1
  H  H96  1  0.49999994  0.42576536  0.20023696  1
  H  H97  1  0.50000019  0.42866163  0.42689296  1
  H  H98  1  0.49999980  0.42864419  0.07312980  1
  H  H99  1  0.50000007  0.42579125  0.29976301  1
  H  H100  1  0.49999971  0.44494082  0.49076389  1
  H  H101  1  0.50000032  0.44490544  0.00927081  1
  H  H102  1  0.50000028  0.50049617  0.01429279  1
  H  H103  1  0.50000004  0.56268381  0.01630561  1
  H  H104  1  0.50000012  0.62394004  0.01658416  1
  H  H105  1  0.50000032  0.68450748  0.01816323  1
