# generated using pymatgen
data_H7C16
_symmetry_space_group_name_H-M   'P 1'
_cell_length_a   20.00000000
_cell_length_b   40.19450000
_cell_length_c   18.98723567
_cell_angle_alpha   90.00000000
_cell_angle_beta   90.00000000
_cell_angle_gamma   90.00000000
_symmetry_Int_Tables_number   1
_chemical_formula_structural   H7C16
_chemical_formula_sum   'H28 C64'
_cell_volume   15263.64888500
_cell_formula_units_Z   4
loop_
 _symmetry_equiv_pos_site_id
 _symmetry_equiv_pos_as_xyz
  1  'x, y, z'
loop_
 _atom_site_type_symbol
 _atom_site_label
 _atom_site_symmetry_multiplicity
 _atom_site_fract_x
 _atom_site_fract_y
 _atom_site_fract_z
 _atom_site_occupancy
  C  C0  1  0.49998610  0.28601703  0.67726136  1
  C  C1  1  0.50002535  0.28652729  0.90782119  1
  C  C2  1  0.50000141  0.31547355  0.71682597  1
  C  C3  1  0.50008154  0.31638686  0.94406596  1
  C  C4  1  0.49997773  0.28646511  0.60317755  1
  C  C5  1  0.50000268  0.28609636  0.83374083  1
  C  C6  1  0.50001075  0.34654925  0.68015330  1
  C  C7  1  0.50010828  0.34702097  0.90672792  1
  C  C8  1  0.50002581  0.37737034  0.71764188  1
  C  C9  1  0.50018299  0.37761578  0.94274486  1
  C  C10  1  0.49999150  0.31632733  0.56690980  1
  C  C11  1  0.50001834  0.31551830  0.79411751  1
  C  C12  1  0.50001273  0.34697842  0.60419764  1
  C  C13  1  0.50005846  0.34658970  0.83083025  1
  C  C14  1  0.50002971  0.40795876  0.68066543  1
  C  C15  1  0.49934510  0.35534909  0.14823376  1
  C  C16  1  0.50015801  0.40818377  0.90684805  1
  C  C17  1  0.49954888  0.43297027  0.36924370  1
  C  C18  1  0.50003180  0.43885528  0.71798327  1
  C  C19  1  0.50019681  0.43894361  0.94280555  1
  C  C20  1  0.50004699  0.37762218  0.56834687  1
  C  C21  1  0.50005344  0.37741828  0.79353297  1
  C  C22  1  0.50004976  0.40816565  0.60443027  1
  C  C23  1  0.49822303  0.38484418  0.13499026  1
  C  C24  1  0.50008407  0.40800847  0.83064843  1
  C  C25  1  0.50117183  0.42659833  0.30000721  1
  C  C26  1  0.50002245  0.46947321  0.68098528  1
  C  C27  1  0.50012991  0.46958909  0.90712804  1
  C  C28  1  0.50001479  0.50023736  0.71815732  1
  C  C29  1  0.50012653  0.50027033  0.94315140  1
  C  C30  1  0.50007592  0.43893344  0.56869223  1
  C  C31  1  0.50005783  0.43891215  0.79355539  1
  C  C32  1  0.50003914  0.46948306  0.60469779  1
  C  C33  1  0.50006931  0.46953719  0.83077115  1
  C  C34  1  0.49999997  0.53093552  0.68092636  1
  C  C35  1  0.50007234  0.53101415  0.90740219  1
  C  C36  1  0.49999704  0.56151778  0.71814343  1
  C  C37  1  0.50006125  0.56165912  0.94326980  1
  C  C38  1  0.50002393  0.50012329  0.56872010  1
  C  C39  1  0.50003625  0.50031197  0.79371701  1
  C  C40  1  0.49999610  0.53080197  0.60457296  1
  C  C41  1  0.50003788  0.53104822  0.83100665  1
  C  C42  1  0.49998535  0.59232741  0.68078783  1
  C  C43  1  0.50003235  0.59241227  0.90726554  1
  C  C44  1  0.49998976  0.62291839  0.71771405  1
  C  C45  1  0.50002595  0.62305816  0.94307519  1
  C  C46  1  0.49997616  0.56133325  0.56860124  1
  C  C47  1  0.50001421  0.56161571  0.79377458  1
  C  C48  1  0.49997293  0.59203687  0.60454680  1
  C  C49  1  0.50001534  0.59252290  0.83096411  1
  C  C50  1  0.49998486  0.65365221  0.67995571  1
  C  C51  1  0.50001071  0.65366353  0.90693902  1
  C  C52  1  0.49999206  0.68476910  0.71646921  1
  C  C53  1  0.50000230  0.68445041  0.94384593  1
  C  C54  1  0.49996722  0.62248330  0.56826399  1
  C  C55  1  0.50000309  0.62303218  0.79368771  1
  C  C56  1  0.49997599  0.65314114  0.60395723  1
  C  C57  1  0.50000398  0.65391657  0.83091053  1
  C  C58  1  0.49999554  0.71415294  0.67663792  1
  C  C59  1  0.49999173  0.71421025  0.90718220  1
  C  C60  1  0.49998018  0.68371797  0.56643450  1
  C  C61  1  0.49999612  0.68488977  0.79382387  1
  C  C62  1  0.49999074  0.71360822  0.60255141  1
  C  C63  1  0.49999033  0.71443180  0.83308318  1
  H  H64  1  0.49998390  0.26189114  0.70389932  1
  H  H65  1  0.49999858  0.26291854  0.93668679  1
  H  H66  1  0.49996435  0.26286545  0.57427699  1
  H  H67  1  0.49996929  0.26199213  0.80706175  1
  H  H68  1  0.50000398  0.73834848  0.70298043  1
  H  H69  1  0.49998370  0.73789352  0.93584123  1
  H  H70  1  0.49999611  0.73715154  0.57346232  1
  H  H71  1  0.49998193  0.73847164  0.80614738  1
  H  H72  1  0.49997759  0.68309269  0.50870405  1
  H  H73  1  0.49998802  0.31680870  0.50917707  1
  H  H74  1  0.49996069  0.62234866  0.51050519  1
  H  H75  1  0.50032689  0.32923929  0.16055899  1
  H  H76  1  0.49819721  0.41280720  0.40806377  1
  H  H77  1  0.50007214  0.37745340  0.51059498  1
  H  H78  1  0.50023781  0.37732956  0.00039035  1
  H  H79  1  0.50120576  0.40113745  0.27922807  1
  H  H80  1  0.49996853  0.56129348  0.51084685  1
  H  H81  1  0.50003709  0.50013226  0.51095799  1
  H  H82  1  0.49724955  0.41101982  0.12335108  1
  H  H83  1  0.49950166  0.45842892  0.39016800  1
  H  H84  1  0.50028922  0.43907176  0.00053594  1
  H  H85  1  0.50251402  0.44678731  0.26109483  1
  H  H86  1  0.50013163  0.43911889  0.51110216  1
  H  H87  1  0.50008921  0.31700494  0.00175207  1
  H  H88  1  0.50017008  0.50025215  0.00093086  1
  H  H89  1  0.50008201  0.56169929  0.00104967  1
  H  H90  1  0.50003571  0.62317601  0.00087083  1
  H  H91  1  0.50000270  0.68415428  0.00160358  1
