# generated using pymatgen
data_H13C38
_symmetry_space_group_name_H-M   'P 1'
_cell_length_a   20.00000000
_cell_length_b   40.19450000
_cell_length_c   17.26517277
_cell_angle_alpha   90.00000000
_cell_angle_beta   90.00000000
_cell_angle_gamma   90.00000000
_symmetry_Int_Tables_number   1
_chemical_formula_structural   H13C38
_chemical_formula_sum   'H26 C76'
_cell_volume   13879.29974100
_cell_formula_units_Z   2
loop_
 _symmetry_equiv_pos_site_id
 _symmetry_equiv_pos_as_xyz
  1  'x, y, z'
loop_
 _atom_site_type_symbol
 _atom_site_label
 _atom_site_symmetry_multiplicity
 _atom_site_fract_x
 _atom_site_fract_y
 _atom_site_fract_z
 _atom_site_occupancy
  C  C0  1  0.50000001  0.28585917  0.66660611  1
  C  C1  1  0.49999999  0.28458805  0.16592479  1
  C  C2  1  0.49999999  0.28522907  0.91528264  1
  C  C3  1  0.50000001  0.28506857  0.41700441  1
  C  C4  1  0.50000001  0.31601997  0.70944883  1
  C  C5  1  0.50000000  0.31475182  0.20958101  1
  C  C6  1  0.49999996  0.31515021  0.95909605  1
  C  C7  1  0.50000002  0.31521542  0.46033332  1
  C  C8  1  0.50000002  0.28563567  0.58712363  1
  C  C9  1  0.49999999  0.28461094  0.08625854  1
  C  C10  1  0.49999999  0.28565151  0.83575869  1
  C  C11  1  0.50000001  0.28492425  0.33740690  1
  C  C12  1  0.50000002  0.34656108  0.66826672  1
  C  C13  1  0.50000001  0.34536092  0.16798049  1
  C  C14  1  0.49999996  0.34597226  0.91784702  1
  C  C15  1  0.50000002  0.34589464  0.41907608  1
  C  C16  1  0.50000002  0.37762102  0.71024501  1
  C  C17  1  0.50000004  0.37544494  0.21130941  1
  C  C18  1  0.49999997  0.37660892  0.96048885  1
  C  C19  1  0.50000002  0.37585740  0.46214591  1
  C  C20  1  0.50000003  0.31562987  0.54373508  1
  C  C21  1  0.49999998  0.31469650  0.04268555  1
  C  C22  1  0.50000000  0.31590751  0.79318734  1
  C  C23  1  0.50000001  0.31497401  0.29352098  1
  C  C24  1  0.50000003  0.34637570  0.58512977  1
  C  C25  1  0.49999998  0.34538246  0.08385122  1
  C  C26  1  0.50000001  0.34636139  0.83469690  1
  C  C27  1  0.50000001  0.34570457  0.33485046  1
  C  C28  1  0.49999996  0.40833134  0.66882641  1
  C  C29  1  0.50000010  0.40838084  0.91847008  1
  C  C30  1  0.49999997  0.43905611  0.71046289  1
  C  C31  1  0.50000018  0.43868344  0.95691871  1
  C  C32  1  0.50000001  0.37708704  0.54270517  1
  C  C33  1  0.49999997  0.37532407  0.04093992  1
  C  C34  1  0.50000005  0.37751888  0.79304206  1
  C  C35  1  0.50000002  0.37563478  0.29092960  1
  C  C36  1  0.49999991  0.40880649  0.58509676  1
  C  C37  1  0.50000012  0.40812268  0.83479844  1
  C  C38  1  0.49999980  0.46993212  0.67030981  1
  C  C39  1  0.50000040  0.46970841  0.91779254  1
  C  C40  1  0.49999988  0.50070558  0.71120470  1
  C  C41  1  0.50000053  0.49994796  0.95820232  1
  C  C42  1  0.49999978  0.43928106  0.54724955  1
  C  C43  1  0.50000014  0.43895018  0.79371230  1
  C  C44  1  0.49999962  0.47021065  0.58697905  1
  C  C45  1  0.50000034  0.46969008  0.83445088  1
  C  C46  1  0.49999957  0.53142292  0.67049619  1
  C  C47  1  0.50000070  0.53091375  0.91939853  1
  C  C48  1  0.49999977  0.56204831  0.71185703  1
  C  C49  1  0.50000085  0.56137076  0.95932016  1
  C  C50  1  0.49999937  0.50065294  0.54728391  1
  C  C51  1  0.50000027  0.50057765  0.79414084  1
  C  C52  1  0.49999925  0.53152436  0.58665910  1
  C  C53  1  0.50000051  0.53111996  0.83555582  1
  C  C54  1  0.49999950  0.59291407  0.67121434  1
  C  C55  1  0.50000085  0.59221359  0.92016126  1
  C  C56  1  0.49999982  0.62349325  0.71242609  1
  C  C57  1  0.50000078  0.62267807  0.96014413  1
  C  C58  1  0.49999904  0.56217445  0.54743419  1
  C  C59  1  0.50000035  0.56189967  0.79490801  1
  C  C60  1  0.49999913  0.59288839  0.58732443  1
  C  C61  1  0.50000059  0.59258818  0.83629992  1
  C  C62  1  0.49999964  0.65437427  0.67160700  1
  C  C63  1  0.50000061  0.65341395  0.92106896  1
  C  C64  1  0.49999993  0.68537112  0.71246134  1
  C  C65  1  0.50000051  0.68396595  0.96248780  1
  C  C66  1  0.49999908  0.62357091  0.54816466  1
  C  C67  1  0.50000032  0.62332949  0.79585267  1
  C  C68  1  0.49999931  0.65415251  0.58803085  1
  C  C69  1  0.50000043  0.65401600  0.83750244  1
  C  C70  1  0.49999998  0.71494326  0.66934000  1
  C  C71  1  0.50000020  0.71391827  0.92294565  1
  C  C72  1  0.49999942  0.68494778  0.54754651  1
  C  C73  1  0.50000018  0.68519625  0.79749100  1
  C  C74  1  0.49999977  0.71470425  0.58790314  1
  C  C75  1  0.50000004  0.71454023  0.84149094  1
  H  H76  1  0.50000000  0.26197085  0.69675620  1
  H  H77  1  0.49999996  0.26054723  0.19565251  1
  H  H78  1  0.50000003  0.26115627  0.94471569  1
  H  H79  1  0.50000000  0.26111024  0.44701021  1
  H  H80  1  0.49999999  0.26161779  0.55746281  1
  H  H81  1  0.49999998  0.26061575  0.05639173  1
  H  H82  1  0.50000002  0.26186618  0.80516362  1
  H  H83  1  0.50000000  0.26090318  0.30772754  1
  H  H84  1  0.50000025  0.73900793  0.69892935  1
  H  H85  1  0.50000006  0.73743979  0.95506739  1
  H  H86  1  0.50000001  0.73839070  0.55645272  1
  H  H87  1  0.49999971  0.73874752  0.81256319  1
  H  H88  1  0.49999938  0.68471386  0.48404573  1
  H  H89  1  0.49999904  0.62374320  0.48462831  1
  H  H90  1  0.49999902  0.56229782  0.48389807  1
  H  H91  1  0.49999940  0.50059578  0.48375002  1
  H  H92  1  0.49999988  0.44050233  0.48393382  1
  H  H93  1  0.50000008  0.39941627  0.18141522  1
  H  H94  1  0.50000000  0.39924196  0.43020323  1
  H  H95  1  0.49999999  0.39866633  0.07298602  1
  H  H96  1  0.50000002  0.39975736  0.32019824  1
  H  H97  1  0.49999992  0.43959223  0.02025657  1
  H  H98  1  0.50000038  0.49961312  0.02174066  1
  H  H99  1  0.50000070  0.56125739  0.02282699  1
  H  H100  1  0.50000079  0.62255423  0.02366987  1
  H  H101  1  0.50000073  0.68334223  0.02599023  1
