# generated using pymatgen
data_H2C15
_symmetry_space_group_name_H-M   'P 1'
_cell_length_a   20.00000000
_cell_length_b   40.19450000
_cell_length_c   17.16798332
_cell_angle_alpha   90.00000000
_cell_angle_beta   90.00000000
_cell_angle_gamma   90.00000000
_symmetry_Int_Tables_number   1
_chemical_formula_structural   H2C15
_chemical_formula_sum   'H16 C120'
_cell_volume   13801.17010949
_cell_formula_units_Z   8
loop_
 _symmetry_equiv_pos_site_id
 _symmetry_equiv_pos_as_xyz
  1  'x, y, z'
loop_
 _atom_site_type_symbol
 _atom_site_label
 _atom_site_symmetry_multiplicity
 _atom_site_fract_x
 _atom_site_fract_y
 _atom_site_fract_z
 _atom_site_occupancy
  C  C0  1  0.50000001  0.28561848  0.66513608  1
  C  C1  1  0.50000000  0.28556358  0.16494276  1
  C  C2  1  0.50000000  0.28558026  0.91518761  1
  C  C3  1  0.49999999  0.28563627  0.41498556  1
  C  C4  1  0.50000000  0.31560553  0.70817270  1
  C  C5  1  0.50000000  0.31558975  0.20795286  1
  C  C6  1  0.50000000  0.31562430  0.95806412  1
  C  C7  1  0.50000000  0.31563234  0.45803335  1
  C  C8  1  0.50000001  0.28563627  0.58501444  1
  C  C9  1  0.50000000  0.28558026  0.08481239  1
  C  C10  1  0.50000000  0.28556358  0.83505724  1
  C  C11  1  0.49999999  0.28561848  0.33486392  1
  C  C12  1  0.50000000  0.34627669  0.66682507  1
  C  C13  1  0.50000000  0.34628424  0.16668768  1
  C  C14  1  0.50000000  0.34629515  0.91670408  1
  C  C15  1  0.50000000  0.34629339  0.41659728  1
  C  C16  1  0.50000000  0.37715857  0.70856828  1
  C  C17  1  0.50000000  0.37717138  0.20842518  1
  C  C18  1  0.50000000  0.37716811  0.95848150  1
  C  C19  1  0.50000000  0.37716173  0.45845699  1
  C  C20  1  0.50000000  0.31563234  0.54196665  1
  C  C21  1  0.50000000  0.31562430  0.04193588  1
  C  C22  1  0.50000000  0.31558975  0.79204714  1
  C  C23  1  0.50000000  0.31560553  0.29182731  1
  C  C24  1  0.50000000  0.34629339  0.58340272  1
  C  C25  1  0.50000000  0.34629515  0.08329593  1
  C  C26  1  0.50000000  0.34628424  0.83331232  1
  C  C27  1  0.50000000  0.34627669  0.33317493  1
  C  C28  1  0.50000000  0.40783313  0.66682146  1
  C  C29  1  0.50000000  0.40784252  0.16671403  1
  C  C30  1  0.50000000  0.40784691  0.91679524  1
  C  C31  1  0.50000000  0.40783390  0.41671844  1
  C  C32  1  0.50000000  0.43851671  0.70841721  1
  C  C33  1  0.50000000  0.43852583  0.20831560  1
  C  C34  1  0.50000000  0.43852758  0.95837021  1
  C  C35  1  0.50000000  0.43851139  0.45834982  1
  C  C36  1  0.50000000  0.37716173  0.54154301  1
  C  C37  1  0.50000000  0.37716811  0.04151850  1
  C  C38  1  0.50000000  0.37717138  0.79157482  1
  C  C39  1  0.50000000  0.37715857  0.29143172  1
  C  C40  1  0.50000000  0.40783390  0.58328156  1
  C  C41  1  0.50000000  0.40784691  0.08320476  1
  C  C42  1  0.50000000  0.40784252  0.83328597  1
  C  C43  1  0.50000000  0.40783313  0.33317854  1
  C  C44  1  0.50000000  0.46930192  0.66664155  1
  C  C45  1  0.50000000  0.46930974  0.16657316  1
  C  C46  1  0.50000000  0.46931035  0.91663197  1
  C  C47  1  0.50000000  0.46930233  0.41658876  1
  C  C48  1  0.50000000  0.50000000  0.70829944  1
  C  C49  1  0.50000000  0.50000000  0.20823947  1
  C  C50  1  0.50000000  0.50000000  0.95827986  1
  C  C51  1  0.50000000  0.50000000  0.45825930  1
  C  C52  1  0.50000000  0.43851139  0.54165019  1
  C  C53  1  0.50000000  0.43852758  0.04162979  1
  C  C54  1  0.50000000  0.43852583  0.79168440  1
  C  C55  1  0.50000000  0.43851671  0.29158279  1
  C  C56  1  0.50000000  0.46930233  0.58341124  1
  C  C57  1  0.50000000  0.46931035  0.08336803  1
  C  C58  1  0.50000000  0.46930974  0.83342684  1
  C  C59  1  0.50000000  0.46930192  0.33335845  1
  C  C60  1  0.50000000  0.53069808  0.66664155  1
  C  C61  1  0.50000000  0.53069026  0.16657316  1
  C  C62  1  0.50000000  0.53068965  0.91663197  1
  C  C63  1  0.50000000  0.53069767  0.41658876  1
  C  C64  1  0.50000000  0.56148329  0.70841721  1
  C  C65  1  0.50000000  0.56147418  0.20831560  1
  C  C66  1  0.50000000  0.56147242  0.95837021  1
  C  C67  1  0.50000000  0.56148861  0.45834982  1
  C  C68  1  0.50000000  0.50000000  0.54174070  1
  C  C69  1  0.50000000  0.50000000  0.04172014  1
  C  C70  1  0.50000000  0.50000000  0.79176054  1
  C  C71  1  0.50000000  0.50000000  0.29170056  1
  C  C72  1  0.50000000  0.53069767  0.58341124  1
  C  C73  1  0.50000000  0.53068965  0.08336803  1
  C  C74  1  0.50000000  0.53069026  0.83342684  1
  C  C75  1  0.50000000  0.53069808  0.33335845  1
  C  C76  1  0.50000000  0.59216687  0.66682146  1
  C  C77  1  0.50000000  0.59215748  0.16671403  1
  C  C78  1  0.50000000  0.59215309  0.91679524  1
  C  C79  1  0.50000000  0.59216610  0.41671844  1
  C  C80  1  0.50000000  0.62284143  0.70856828  1
  C  C81  1  0.50000000  0.62282863  0.20842518  1
  C  C82  1  0.50000000  0.62283189  0.95848150  1
  C  C83  1  0.50000000  0.62283827  0.45845699  1
  C  C84  1  0.50000000  0.56148861  0.54165019  1
  C  C85  1  0.50000000  0.56147242  0.04162979  1
  C  C86  1  0.50000000  0.56147418  0.79168440  1
  C  C87  1  0.50000000  0.56148329  0.29158279  1
  C  C88  1  0.50000000  0.59216610  0.58328156  1
  C  C89  1  0.50000000  0.59215309  0.08320476  1
  C  C90  1  0.50000000  0.59215748  0.83328597  1
  C  C91  1  0.50000000  0.59216687  0.33317855  1
  C  C92  1  0.50000000  0.65372331  0.66682507  1
  C  C93  1  0.50000000  0.65371577  0.16668768  1
  C  C94  1  0.50000000  0.65370485  0.91670408  1
  C  C95  1  0.50000000  0.65370661  0.41659728  1
  C  C96  1  0.50000000  0.68439448  0.70817270  1
  C  C97  1  0.50000000  0.68441026  0.20795286  1
  C  C98  1  0.50000000  0.68437570  0.95806412  1
  C  C99  1  0.50000000  0.68436766  0.45803335  1
  C  C100  1  0.50000000  0.62283827  0.54154301  1
  C  C101  1  0.50000000  0.62283189  0.04151850  1
  C  C102  1  0.50000000  0.62282863  0.79157482  1
  C  C103  1  0.50000000  0.62284143  0.29143172  1
  C  C104  1  0.50000000  0.65370661  0.58340272  1
  C  C105  1  0.50000000  0.65370485  0.08329593  1
  C  C106  1  0.50000000  0.65371577  0.83331232  1
  C  C107  1  0.50000000  0.65372331  0.33317493  1
  C  C108  1  0.50000001  0.71438152  0.66513608  1
  C  C109  1  0.50000000  0.71443642  0.16494276  1
  C  C110  1  0.50000000  0.71441975  0.91518761  1
  C  C111  1  0.49999999  0.71436373  0.41498556  1
  C  C112  1  0.50000000  0.68436766  0.54196665  1
  C  C113  1  0.50000000  0.68437570  0.04193588  1
  C  C114  1  0.50000000  0.68441026  0.79204714  1
  C  C115  1  0.50000000  0.68439448  0.29182731  1
  C  C116  1  0.50000001  0.71436373  0.58501444  1
  C  C117  1  0.50000000  0.71441975  0.08481239  1
  C  C118  1  0.50000000  0.71443642  0.83505724  1
  C  C119  1  0.49999999  0.71438152  0.33486392  1
  H  H120  1  0.50000000  0.26166898  0.69521125  1
  H  H121  1  0.50000000  0.26161943  0.19508772  1
  H  H122  1  0.50000000  0.26167136  0.94550265  1
  H  H123  1  0.50000000  0.26169124  0.44509541  1
  H  H124  1  0.50000000  0.26169124  0.55490459  1
  H  H125  1  0.50000000  0.26167136  0.05449735  1
  H  H126  1  0.50000000  0.26161943  0.80491228  1
  H  H127  1  0.50000000  0.26166898  0.30478875  1
  H  H128  1  0.50000000  0.73833102  0.69521125  1
  H  H129  1  0.50000000  0.73838057  0.19508772  1
  H  H130  1  0.50000000  0.73832865  0.94550265  1
  H  H131  1  0.50000000  0.73830876  0.44509541  1
  H  H132  1  0.50000000  0.73830876  0.55490459  1
  H  H133  1  0.50000000  0.73832865  0.05449735  1
  H  H134  1  0.50000000  0.73838057  0.80491228  1
  H  H135  1  0.50000000  0.73833102  0.30478875  1
