# generated using pymatgen
data_HC5
_symmetry_space_group_name_H-M   'P 1'
_cell_length_a   20.00000000
_cell_length_b   40.19450000
_cell_length_c   17.28870950
_cell_angle_alpha   90.00000000
_cell_angle_beta   90.00000000
_cell_angle_gamma   90.00000000
_symmetry_Int_Tables_number   1
_chemical_formula_structural   HC5
_chemical_formula_sum   'H20 C100'
_cell_volume   13898.22068103
_cell_formula_units_Z   20
loop_
 _symmetry_equiv_pos_site_id
 _symmetry_equiv_pos_as_xyz
  1  'x, y, z'
loop_
 _atom_site_type_symbol
 _atom_site_label
 _atom_site_symmetry_multiplicity
 _atom_site_fract_x
 _atom_site_fract_y
 _atom_site_fract_z
 _atom_site_occupancy
  C  C0  1  0.49999999  0.28637607  0.66451088  1
  C  C1  1  0.50000000  0.28649484  0.91490052  1
  C  C2  1  0.49999999  0.31657490  0.70844501  1
  C  C3  1  0.50000001  0.31642341  0.20998052  1
  C  C4  1  0.50000000  0.31691882  0.95747226  1
  C  C5  1  0.50000001  0.31705277  0.46133973  1
  C  C6  1  0.50000000  0.28648890  0.58515744  1
  C  C7  1  0.50000000  0.28638442  0.83554499  1
  C  C8  1  0.50000000  0.34750653  0.66740248  1
  C  C9  1  0.50000001  0.34623594  0.16661989  1
  C  C10  1  0.50000000  0.34764826  0.91562947  1
  C  C11  1  0.50000001  0.34645112  0.41802211  1
  C  C12  1  0.49999999  0.37839489  0.70877827  1
  C  C13  1  0.50000001  0.37675420  0.20829631  1
  C  C14  1  0.50000000  0.37807571  0.95780641  1
  C  C15  1  0.50000000  0.37750220  0.45928616  1
  C  C16  1  0.50000001  0.31691711  0.54259991  1
  C  C17  1  0.50000001  0.31704744  0.03872857  1
  C  C18  1  0.49999999  0.31658084  0.79162174  1
  C  C19  1  0.50000001  0.31643096  0.29008106  1
  C  C20  1  0.50000000  0.34764574  0.58444683  1
  C  C21  1  0.50000001  0.34644660  0.08205387  1
  C  C22  1  0.49999999  0.34750884  0.83267628  1
  C  C23  1  0.50000001  0.34624368  0.33345529  1
  C  C24  1  0.50000000  0.40916411  0.66689357  1
  C  C25  1  0.50000001  0.40761520  0.16628024  1
  C  C26  1  0.50000000  0.40899977  0.91609422  1
  C  C27  1  0.50000000  0.40803743  0.41704018  1
  C  C28  1  0.50000000  0.43999357  0.70843247  1
  C  C29  1  0.50000001  0.43794971  0.20824994  1
  C  C30  1  0.50000000  0.43953279  0.95779425  1
  C  C31  1  0.50000000  0.43882963  0.45893860  1
  C  C32  1  0.50000000  0.37807835  0.54228390  1
  C  C33  1  0.50000001  0.37749786  0.04079426  1
  C  C34  1  0.49999999  0.37839522  0.79131648  1
  C  C35  1  0.50000001  0.37675838  0.29179588  1
  C  C36  1  0.50000000  0.40900508  0.58401495  1
  C  C37  1  0.50000001  0.40803029  0.08307219  1
  C  C38  1  0.49999999  0.40915946  0.83321528  1
  C  C39  1  0.50000001  0.40760017  0.33386373  1
  C  C40  1  0.50000000  0.47070772  0.66684761  1
  C  C41  1  0.50000001  0.46847742  0.16622086  1
  C  C42  1  0.50000000  0.47045942  0.91625537  1
  C  C43  1  0.50000000  0.46919852  0.41704839  1
  C  C44  1  0.49999999  0.50186300  0.70833699  1
  C  C45  1  0.50000000  0.49873508  0.20855102  1
  C  C46  1  0.50000001  0.50116047  0.95832331  1
  C  C47  1  0.49999999  0.50008009  0.45910674  1
  C  C48  1  0.50000000  0.43954099  0.54232635  1
  C  C49  1  0.50000000  0.43881586  0.04117573  1
  C  C50  1  0.49999999  0.43998944  0.79169452  1
  C  C51  1  0.50000000  0.43793860  0.29187539  1
  C  C52  1  0.50000000  0.47046764  0.58389067  1
  C  C53  1  0.50000000  0.46918294  0.08304562  1
  C  C54  1  0.50000000  0.47069494  0.83331110  1
  C  C55  1  0.49999999  0.46847169  0.33388707  1
  C  C56  1  0.49999999  0.53252877  0.66666184  1
  C  C57  1  0.50000000  0.52913398  0.16626016  1
  C  C58  1  0.50000001  0.53255210  0.91757039  1
  C  C59  1  0.49999999  0.53034952  0.41694699  1
  C  C60  1  0.50000000  0.56334131  0.70868088  1
  C  C61  1  0.49999999  0.55873494  0.20940622  1
  C  C62  1  0.50000002  0.56309189  0.95980323  1
  C  C63  1  0.49999999  0.56161920  0.45703262  1
  C  C64  1  0.49999999  0.50117223  0.54184592  1
  C  C65  1  0.50000001  0.50006301  0.04104792  1
  C  C66  1  0.50000000  0.50185092  0.79178386  1
  C  C67  1  0.50000000  0.49872540  0.29155761  1
  C  C68  1  0.49999998  0.53256207  0.58261058  1
  C  C69  1  0.50000001  0.53032882  0.08321978  1
  C  C70  1  0.50000001  0.53251398  0.83351195  1
  C  C71  1  0.49999999  0.52912800  0.33389166  1
  C  C72  1  0.50000000  0.59430682  0.66755552  1
  C  C73  1  0.49999997  0.58901067  0.17015392  1
  C  C74  1  0.50000003  0.59452694  0.91631723  1
  C  C75  1  0.50000002  0.59000278  0.40819152  1
  C  C76  1  0.50000000  0.62512924  0.70887511  1
  C  C77  1  0.50000005  0.62605258  0.94941941  1
  C  C78  1  0.49999997  0.56310660  0.54039804  1
  C  C79  1  0.50000001  0.56159920  0.04315527  1
  C  C80  1  0.50000000  0.56333373  0.79152708  1
  C  C81  1  0.50000000  0.55873118  0.29079371  1
  C  C82  1  0.49999997  0.59453352  0.58394593  1
  C  C83  1  0.49999998  0.58997565  0.09203403  1
  C  C84  1  0.50000000  0.59429749  0.83269985  1
  C  C85  1  0.50000002  0.58900980  0.33003425  1
  C  C86  1  0.50000000  0.65676474  0.67057205  1
  C  C87  1  0.50000001  0.65661426  0.91115743  1
  C  C88  1  0.50000001  0.68827425  0.70841130  1
  C  C89  1  0.49999997  0.68645666  0.95487569  1
  C  C90  1  0.49999993  0.62606771  0.55086092  1
  C  C91  1  0.50000001  0.62512625  0.79140161  1
  C  C92  1  0.49999999  0.65663341  0.58914403  1
  C  C93  1  0.50000002  0.65675369  0.82973484  1
  C  C94  1  0.50000002  0.71750906  0.66423156  1
  C  C95  1  0.49999996  0.71679762  0.91727424  1
  C  C96  1  0.50000001  0.68649095  0.54546809  1
  C  C97  1  0.50000002  0.68826491  0.79192261  1
  C  C98  1  0.50000003  0.71682845  0.58310062  1
  C  C99  1  0.50000001  0.71748911  0.83613975  1
  H  H100  1  0.49999997  0.26235830  0.69428385  1
  H  H101  1  0.50000001  0.26294972  0.94703194  1
  H  H102  1  0.50000000  0.26295139  0.55299088  1
  H  H103  1  0.50000001  0.26237973  0.80571765  1
  H  H104  1  0.50000002  0.74170087  0.69312468  1
  H  H105  1  0.49999992  0.74010006  0.95018609  1
  H  H106  1  0.50000004  0.74014234  0.55024010  1
  H  H107  1  0.50000003  0.74168154  0.80725598  1
  H  H108  1  0.50000002  0.68499579  0.48209844  1
  H  H109  1  0.50000001  0.29240658  0.18031060  1
  H  H110  1  0.50000001  0.29287996  0.43231648  1
  H  H111  1  0.50000001  0.29286693  0.06771773  1
  H  H112  1  0.50000000  0.29242596  0.31978485  1
  H  H113  1  0.49999994  0.61273313  0.20040235  1
  H  H114  1  0.50000007  0.61505641  0.42774550  1
  H  H115  1  0.49999995  0.61500995  0.07236144  1
  H  H116  1  0.50000006  0.61272025  0.29978017  1
  H  H117  1  0.49999984  0.63063121  0.49035784  1
  H  H118  1  0.50000009  0.63062666  0.00991248  1
  H  H119  1  0.49999995  0.68493269  0.01824108  1
