# generated using pymatgen
data_H7C16
_symmetry_space_group_name_H-M   'P 1'
_cell_length_a   20.00000000
_cell_length_b   40.19450000
_cell_length_c   18.84977800
_cell_angle_alpha   90.00000000
_cell_angle_beta   90.00000000
_cell_angle_gamma   90.00000000
_symmetry_Int_Tables_number   1
_chemical_formula_structural   H7C16
_chemical_formula_sum   'H28 C64'
_cell_volume   15153.14804002
_cell_formula_units_Z   4
loop_
 _symmetry_equiv_pos_site_id
 _symmetry_equiv_pos_as_xyz
  1  'x, y, z'
loop_
 _atom_site_type_symbol
 _atom_site_label
 _atom_site_symmetry_multiplicity
 _atom_site_fract_x
 _atom_site_fract_y
 _atom_site_fract_z
 _atom_site_occupancy
  C  C0  1  0.49991119  0.28598432  0.67648186  1
  C  C1  1  0.49986982  0.28629213  0.90861792  1
  C  C2  1  0.49998761  0.31542227  0.71628601  1
  C  C3  1  0.50027037  0.31600756  0.94539609  1
  C  C4  1  0.49981027  0.28636580  0.60189046  1
  C  C5  1  0.49973958  0.28600148  0.83400021  1
  C  C6  1  0.50003926  0.34648803  0.67924017  1
  C  C7  1  0.50049184  0.34675060  0.90804620  1
  C  C8  1  0.50021244  0.37726950  0.71707110  1
  C  C9  1  0.50086537  0.37740020  0.94409062  1
  C  C10  1  0.49979182  0.31618691  0.56522227  1
  C  C11  1  0.50002508  0.31547383  0.79418655  1
  C  C12  1  0.49991295  0.34687384  0.60265953  1
  C  C13  1  0.50033734  0.34643673  0.83139613  1
  C  C14  1  0.50022983  0.40778731  0.67959497  1
  C  C15  1  0.50106961  0.40796997  0.90767738  1
  C  C16  1  0.50037095  0.43868498  0.71705242  1
  C  C17  1  0.50160358  0.43869975  0.94397491  1
  C  C18  1  0.49992552  0.37749634  0.56644369  1
  C  C19  1  0.50042419  0.37727253  0.79361490  1
  C  C20  1  0.50010780  0.40801363  0.60281536  1
  C  C21  1  0.50071596  0.40783425  0.83088819  1
  C  C22  1  0.50031736  0.46928410  0.67975293  1
  C  C23  1  0.49342625  0.42570539  0.14583933  1
  C  C24  1  0.50149620  0.46926058  0.90758880  1
  C  C25  1  0.49712081  0.49216228  0.37067129  1
  C  C26  1  0.50038118  0.50001901  0.71735130  1
  C  C27  1  0.50191552  0.50000357  0.94362252  1
  C  C28  1  0.50023766  0.43876754  0.56670258  1
  C  C29  1  0.50064396  0.43866405  0.79323100  1
  C  C30  1  0.50030780  0.46938260  0.60289868  1
  C  C31  1  0.48235410  0.45499478  0.13626034  1
  C  C32  1  0.50089245  0.46925102  0.83070538  1
  C  C33  1  0.51082571  0.48329661  0.30373909  1
  C  C34  1  0.50024143  0.53077163  0.67996347  1
  C  C35  1  0.50136187  0.53076960  0.90775294  1
  C  C36  1  0.50022647  0.56135279  0.71743210  1
  C  C37  1  0.50136766  0.56135701  0.94404055  1
  C  C38  1  0.50040937  0.50006971  0.56686432  1
  C  C39  1  0.50066705  0.50002821  0.79344722  1
  C  C40  1  0.50021583  0.53073007  0.60310023  1
  C  C41  1  0.50078527  0.53078124  0.83089369  1
  C  C42  1  0.50005350  0.59224849  0.68000467  1
  C  C43  1  0.50087335  0.59213291  0.90795483  1
  C  C44  1  0.50004235  0.62278048  0.71741426  1
  C  C45  1  0.50076429  0.62271969  0.94432627  1
  C  C46  1  0.50002986  0.56131829  0.56694168  1
  C  C47  1  0.50047962  0.56138221  0.79356695  1
  C  C48  1  0.49991150  0.59198904  0.60321527  1
  C  C49  1  0.50051493  0.59224097  0.83116373  1
  C  C50  1  0.49989811  0.65359275  0.67965727  1
  C  C51  1  0.50037161  0.65339662  0.90817851  1
  C  C52  1  0.49988933  0.68471202  0.71653389  1
  C  C53  1  0.50017803  0.68424489  0.94526938  1
  C  C54  1  0.49974736  0.62253632  0.56692063  1
  C  C55  1  0.50024465  0.62283753  0.79392288  1
  C  C56  1  0.49978475  0.65314602  0.60308929  1
  C  C57  1  0.50018714  0.65368444  0.83162364  1
  C  C58  1  0.49986499  0.71410374  0.67658699  1
  C  C59  1  0.49983780  0.71402584  0.90840908  1
  C  C60  1  0.49976744  0.68375237  0.56540888  1
  C  C61  1  0.49993490  0.68468431  0.79443338  1
  C  C62  1  0.49982992  0.71369900  0.60188134  1
  C  C63  1  0.49973465  0.71431163  0.83381774  1
  H  H64  1  0.49993199  0.26188577  0.70341713  1
  H  H65  1  0.49965797  0.26263242  0.93756448  1
  H  H66  1  0.49973310  0.26273833  0.57288365  1
  H  H67  1  0.49937811  0.26193445  0.80715797  1
  H  H68  1  0.49988712  0.73821877  0.70363604  1
  H  H69  1  0.49966270  0.73777273  0.93710100  1
  H  H70  1  0.49984528  0.73727984  0.57270989  1
  H  H71  1  0.49948481  0.73829580  0.80643846  1
  H  H72  1  0.49974229  0.68318439  0.50722126  1
  H  H73  1  0.49969557  0.31650800  0.50707423  1
  H  H74  1  0.49962073  0.62259261  0.50871054  1
  H  H75  1  0.49977611  0.37745032  0.50822454  1
  H  H76  1  0.49998356  0.56158647  0.50876750  1
  H  H77  1  0.50283267  0.39960811  0.15372277  1
  H  H78  1  0.48542020  0.47328127  0.41068581  1
  H  H79  1  0.50027435  0.43852602  0.50859055  1
  H  H80  1  0.50177655  0.43865742  0.00210163  1
  H  H81  1  0.51044966  0.45718786  0.28694563  1
  H  H82  1  0.47260323  0.48107641  0.12874399  1
  H  H83  1  0.49685558  0.51814200  0.38858937  1
  H  H84  1  0.50280378  0.49994428  0.00170019  1
  H  H85  1  0.52270359  0.50176502  0.26273839  1
  H  H86  1  0.50069546  0.50006440  0.50892842  1
  H  H87  1  0.50040473  0.31634282  0.00363683  1
  H  H88  1  0.50088370  0.37755780  0.00230554  1
  H  H89  1  0.50174978  0.56124074  0.00221399  1
  H  H90  1  0.50100203  0.62278123  0.00251175  1
  H  H91  1  0.50029897  0.68406687  0.00343380  1
