# generated using pymatgen
data_H3C11
_symmetry_space_group_name_H-M   'P 1'
_cell_length_a   20.00000000
_cell_length_b   40.19450000
_cell_length_c   17.38075174
_cell_angle_alpha   90.00000000
_cell_angle_beta   90.00000000
_cell_angle_gamma   90.00000000
_symmetry_Int_Tables_number   1
_chemical_formula_structural   H3C11
_chemical_formula_sum   'H24 C88'
_cell_volume   13972.21251461
_cell_formula_units_Z   8
loop_
 _symmetry_equiv_pos_site_id
 _symmetry_equiv_pos_as_xyz
  1  'x, y, z'
loop_
 _atom_site_type_symbol
 _atom_site_label
 _atom_site_symmetry_multiplicity
 _atom_site_fract_x
 _atom_site_fract_y
 _atom_site_fract_z
 _atom_site_occupancy
  C  C0  1  0.50000001  0.28641601  0.66588374  1
  C  C1  1  0.49999999  0.28371948  0.16330896  1
  C  C2  1  0.50000000  0.28593987  0.91345882  1
  C  C3  1  0.50000000  0.28446400  0.41639888  1
  C  C4  1  0.50000001  0.31649911  0.70820974  1
  C  C5  1  0.49999997  0.31328973  0.20802049  1
  C  C6  1  0.49999999  0.31558553  0.95726617  1
  C  C7  1  0.50000001  0.31466845  0.45911958  1
  C  C8  1  0.50000001  0.28596333  0.58657941  1
  C  C9  1  0.50000000  0.28443713  0.08371006  1
  C  C10  1  0.50000000  0.28638582  0.83413027  1
  C  C11  1  0.50000000  0.28374011  0.33680592  1
  C  C12  1  0.50000000  0.34699893  0.66677367  1
  C  C13  1  0.49999998  0.34396799  0.16653292  1
  C  C14  1  0.50000000  0.34655692  0.91634267  1
  C  C15  1  0.50000001  0.34488170  0.41695970  1
  C  C16  1  0.50000001  0.37809042  0.70829789  1
  C  C17  1  0.50000001  0.37437120  0.20875396  1
  C  C18  1  0.50000002  0.37715417  0.95877024  1
  C  C19  1  0.50000000  0.37592870  0.45887831  1
  C  C20  1  0.50000001  0.31562011  0.54282233  1
  C  C21  1  0.50000000  0.31463572  0.04095884  1
  C  C22  1  0.50000001  0.31649048  0.79186385  1
  C  C23  1  0.49999999  0.31329764  0.29205910  1
  C  C24  1  0.50000000  0.34658856  0.58375433  1
  C  C25  1  0.50000000  0.34486321  0.08311589  1
  C  C26  1  0.50000001  0.34698768  0.83332769  1
  C  C27  1  0.49999999  0.34398174  0.33354788  1
  C  C28  1  0.50000000  0.40851280  0.66629555  1
  C  C29  1  0.50000000  0.40484040  0.16637207  1
  C  C30  1  0.50000002  0.40849061  0.91784242  1
  C  C31  1  0.50000000  0.40616431  0.41673405  1
  C  C32  1  0.50000000  0.43925959  0.70845615  1
  C  C33  1  0.50000000  0.43444578  0.20938383  1
  C  C34  1  0.50000002  0.43901679  0.95989562  1
  C  C35  1  0.49999999  0.43744704  0.45684941  1
  C  C36  1  0.50000000  0.37717911  0.54132173  1
  C  C37  1  0.50000001  0.37590888  0.04121562  1
  C  C38  1  0.50000001  0.37808304  0.79178313  1
  C  C39  1  0.50000000  0.37437883  0.29133370  1
  C  C40  1  0.49999998  0.40851873  0.58223275  1
  C  C41  1  0.50000002  0.40614940  0.08337848  1
  C  C42  1  0.50000002  0.40849962  0.83378187  1
  C  C43  1  0.50000001  0.40485367  0.33373188  1
  C  C44  1  0.50000002  0.46997579  0.66739026  1
  C  C45  1  0.49999998  0.46471116  0.17004741  1
  C  C46  1  0.50000000  0.47043256  0.91614019  1
  C  C47  1  0.50000002  0.46577454  0.40799751  1
  C  C48  1  0.50000004  0.50081142  0.70894248  1
  C  C49  1  0.50000003  0.50198336  0.94905715  1
  C  C50  1  0.49999997  0.43905396  0.54021573  1
  C  C51  1  0.50000003  0.43743370  0.04326848  1
  C  C52  1  0.50000002  0.43925586  0.79162581  1
  C  C53  1  0.50000000  0.43445559  0.29072661  1
  C  C54  1  0.50000001  0.47046259  0.58397178  1
  C  C55  1  0.50000000  0.46576670  0.09213497  1
  C  C56  1  0.50000001  0.46995010  0.83272313  1
  C  C57  1  0.50000003  0.46472152  0.33007890  1
  C  C58  1  0.50000002  0.53225915  0.67095451  1
  C  C59  1  0.50000003  0.53260436  0.91069479  1
  C  C60  1  0.49999999  0.56328361  0.70948867  1
  C  C61  1  0.50000018  0.56247273  0.95240268  1
  C  C62  1  0.49999999  0.50203356  0.55108361  1
  C  C63  1  0.50000001  0.50079451  0.79120460  1
  C  C64  1  0.49999996  0.53264841  0.58951243  1
  C  C65  1  0.50000001  0.53223546  0.82925593  1
  C  C66  1  0.49999971  0.59389373  0.66842704  1
  C  C67  1  0.50000034  0.59354721  0.91488096  1
  C  C68  1  0.49999982  0.62455104  0.70884448  1
  C  C69  1  0.50000021  0.62391037  0.95476549  1
  C  C70  1  0.49999978  0.56253296  0.54789032  1
  C  C71  1  0.50000007  0.56326037  0.79081109  1
  C  C72  1  0.49999967  0.59360123  0.58547338  1
  C  C73  1  0.50000034  0.59386521  0.83192415  1
  C  C74  1  0.49999971  0.65524294  0.66783130  1
  C  C75  1  0.50000039  0.65458149  0.91570531  1
  C  C76  1  0.49999994  0.68640222  0.70798292  1
  C  C77  1  0.50000020  0.68513220  0.95670407  1
  C  C78  1  0.49999977  0.62398515  0.54565604  1
  C  C79  1  0.50000023  0.62453633  0.79157460  1
  C  C80  1  0.49999966  0.65464213  0.58478047  1
  C  C81  1  0.50000034  0.65520849  0.83265454  1
  C  C82  1  0.50000001  0.71573261  0.66428183  1
  C  C83  1  0.50000008  0.71502924  0.91731266  1
  C  C84  1  0.49999971  0.68520961  0.54385066  1
  C  C85  1  0.50000009  0.68638282  0.79256523  1
  C  C86  1  0.49999989  0.71509244  0.58329895  1
  C  C87  1  0.50000006  0.71569709  0.83633315  1
  H  H88  1  0.50000001  0.26253911  0.69591767  1
  H  H89  1  0.50000001  0.25942931  0.19176851  1
  H  H90  1  0.50000000  0.26181881  0.94249721  1
  H  H91  1  0.50000001  0.26058175  0.44655989  1
  H  H92  1  0.50000002  0.26184567  0.55748778  1
  H  H93  1  0.49999999  0.26056155  0.05353131  1
  H  H94  1  0.50000000  0.26252858  0.80402752  1
  H  H95  1  0.49999998  0.25943284  0.30839355  1
  H  H96  1  0.50000005  0.74002480  0.69269513  1
  H  H97  1  0.49999997  0.73851511  0.94931663  1
  H  H98  1  0.49999993  0.73859833  0.55137152  1
  H  H99  1  0.50000009  0.73999576  0.80795754  1
  H  H100  1  0.49999968  0.68453847  0.48079137  1
  H  H101  1  0.49999987  0.62383411  0.48257426  1
  H  H102  1  0.49999997  0.56180513  0.48477712  1
  H  H103  1  0.49999995  0.48845797  0.20009619  1
  H  H104  1  0.50000005  0.49089272  0.42727329  1
  H  H105  1  0.49999995  0.49089697  0.07293778  1
  H  H106  1  0.50000006  0.48846721  0.30002840  1
  H  H107  1  0.49999987  0.50641436  0.49076049  1
  H  H108  1  0.50000012  0.50632953  0.00940343  1
  H  H109  1  0.49999994  0.56170366  0.01551835  1
  H  H110  1  0.49999994  0.62374115  0.01786557  1
  H  H111  1  0.50000005  0.68442460  0.01975464  1
