# generated using pymatgen
data_H7C17
_symmetry_space_group_name_H-M   'P 1'
_cell_length_a   20.00000000
_cell_length_b   40.19450000
_cell_length_c   17.97997512
_cell_angle_alpha   90.00000000
_cell_angle_beta   90.00000000
_cell_angle_gamma   90.00000000
_symmetry_Int_Tables_number   1
_chemical_formula_structural   H7C17
_chemical_formula_sum   'H28 C68'
_cell_volume   14453.92220298
_cell_formula_units_Z   4
loop_
 _symmetry_equiv_pos_site_id
 _symmetry_equiv_pos_as_xyz
  1  'x, y, z'
loop_
 _atom_site_type_symbol
 _atom_site_label
 _atom_site_symmetry_multiplicity
 _atom_site_fract_x
 _atom_site_fract_y
 _atom_site_fract_z
 _atom_site_occupancy
  C  C0  1  0.50000010  0.28335664  0.67029942  1
  C  C1  1  0.49999927  0.28362109  0.91286403  1
  C  C2  1  0.49999986  0.31280991  0.71219454  1
  C  C3  1  0.49999999  0.31365850  0.95066229  1
  C  C4  1  0.50000086  0.28377944  0.59227247  1
  C  C5  1  0.49999943  0.28331552  0.83485129  1
  C  C6  1  0.50000003  0.34406611  0.67441237  1
  C  C7  1  0.50000042  0.34402440  0.91061382  1
  C  C8  1  0.49999978  0.37538932  0.71277723  1
  C  C9  1  0.50000159  0.37468645  0.94850756  1
  C  C10  1  0.50000110  0.31389573  0.55476805  1
  C  C11  1  0.49999958  0.31281365  0.79320917  1
  C  C12  1  0.50000058  0.34419074  0.59510886  1
  C  C13  1  0.49999975  0.34402056  0.83128207  1
  C  C14  1  0.49999978  0.40594325  0.67285854  1
  C  C15  1  0.49999869  0.42207147  0.17096372  1
  C  C16  1  0.50000048  0.40555439  0.91396441  1
  C  C17  1  0.49999948  0.41627711  0.41163579  1
  C  C18  1  0.49999990  0.43683355  0.71316436  1
  C  C19  1  0.50000046  0.45150721  0.21399168  1
  C  C20  1  0.50000021  0.43652156  0.95731522  1
  C  C21  1  0.49999998  0.43934631  0.47085996  1
  C  C22  1  0.50000065  0.37486974  0.55739723  1
  C  C23  1  0.49999977  0.37535317  0.79308630  1
  C  C24  1  0.50000001  0.40571042  0.59208351  1
  C  C25  1  0.49999810  0.41603383  0.09454105  1
  C  C26  1  0.49999980  0.40588165  0.83319729  1
  C  C27  1  0.49999988  0.42233714  0.33523052  1
  C  C28  1  0.50000025  0.46746961  0.67296283  1
  C  C29  1  0.50000004  0.46782633  0.91427022  1
  C  C30  1  0.50000032  0.49811969  0.71329506  1
  C  C31  1  0.50000005  0.49861371  0.94935828  1
  C  C32  1  0.49999994  0.43670354  0.54887705  1
  C  C33  1  0.49999990  0.43910957  0.03536069  1
  C  C34  1  0.49999974  0.43678563  0.79303237  1
  C  C35  1  0.50000040  0.45169041  0.29195753  1
  C  C36  1  0.50000002  0.46797607  0.59202939  1
  C  C37  1  0.49999982  0.46736068  0.83341790  1
  C  C38  1  0.50000014  0.52923842  0.67514531  1
  C  C39  1  0.50000006  0.52937890  0.91146648  1
  C  C40  1  0.50000016  0.55998688  0.71376486  1
  C  C41  1  0.50000002  0.55953767  0.95036294  1
  C  C42  1  0.49999957  0.49882565  0.55712310  1
  C  C43  1  0.50000005  0.49805889  0.79333354  1
  C  C44  1  0.49999968  0.52955379  0.59527781  1
  C  C45  1  0.50000028  0.52914986  0.83162777  1
  C  C46  1  0.49999936  0.59078123  0.67445429  1
  C  C47  1  0.50000119  0.59046715  0.91305833  1
  C  C48  1  0.50000003  0.62143547  0.71363463  1
  C  C49  1  0.50000098  0.62088404  0.95143701  1
  C  C50  1  0.49999925  0.55977943  0.55664987  1
  C  C51  1  0.50000075  0.55993135  0.79315836  1
  C  C52  1  0.49999868  0.59067669  0.59412544  1
  C  C53  1  0.50000168  0.59068048  0.83270135  1
  C  C54  1  0.49999924  0.65218601  0.67413934  1
  C  C55  1  0.50000194  0.65157600  0.91370681  1
  C  C56  1  0.50000029  0.68328913  0.71305615  1
  C  C57  1  0.50000128  0.68220739  0.95315948  1
  C  C58  1  0.49999823  0.62114349  0.55597415  1
  C  C59  1  0.50000168  0.62137769  0.79373768  1
  C  C60  1  0.49999810  0.65179336  0.59389272  1
  C  C61  1  0.50000222  0.65207646  0.83345414  1
  C  C62  1  0.50000005  0.71272026  0.67129910  1
  C  C63  1  0.50000089  0.71206902  0.91491728  1
  C  C64  1  0.49999791  0.68247353  0.55459867  1
  C  C65  1  0.50000154  0.68323231  0.79473913  1
  C  C66  1  0.49999899  0.71228235  0.59304184  1
  C  C67  1  0.50000116  0.71259782  0.83666715  1
  H  H68  1  0.49999956  0.25924260  0.69850681  1
  H  H69  1  0.49999882  0.26003106  0.94341996  1
  H  H70  1  0.50000124  0.26024350  0.56145345  1
  H  H71  1  0.49999962  0.25925379  0.80640697  1
  H  H72  1  0.50000101  0.73685516  0.69941785  1
  H  H73  1  0.49999972  0.73564566  0.94548777  1
  H  H74  1  0.49999943  0.73590811  0.56264644  1
  H  H75  1  0.50000041  0.73676382  0.80867162  1
  H  H76  1  0.49999720  0.68209037  0.49361767  1
  H  H77  1  0.50000157  0.31469750  0.49378251  1
  H  H78  1  0.49999900  0.62103747  0.49497188  1
  H  H79  1  0.49999703  0.39885702  0.20296913  1
  H  H80  1  0.49999871  0.38963966  0.42230853  1
  H  H81  1  0.50000146  0.37303283  0.49745461  1
  H  H82  1  0.49999509  0.38940132  0.08374685  1
  H  H83  1  0.49999982  0.39915413  0.30313095  1
  H  H84  1  0.50000002  0.55949258  0.49564415  1
  H  H85  1  0.49999885  0.50083145  0.49660288  1
  H  H86  1  0.50000142  0.47570689  0.18557885  1
  H  H87  1  0.50000069  0.46492162  0.45017966  1
  H  H88  1  0.50000090  0.46466782  0.05611688  1
  H  H89  1  0.50000057  0.47604714  0.31970048  1
  H  H90  1  0.50000018  0.31427571  0.01170097  1
  H  H91  1  0.50000370  0.37280615  0.00843540  1
  H  H92  1  0.50000049  0.50053920  0.00989268  1
  H  H93  1  0.49999850  0.55914792  0.01139025  1
  H  H94  1  0.49999881  0.62066387  0.01245163  1
  H  H95  1  0.50000070  0.68169736  0.01412795  1
