# generated using pymatgen
data_H7C17
_symmetry_space_group_name_H-M   'P 1'
_cell_length_a   20.00000000
_cell_length_b   40.19450000
_cell_length_c   17.96728157
_cell_angle_alpha   90.00000000
_cell_angle_beta   90.00000000
_cell_angle_gamma   90.00000000
_symmetry_Int_Tables_number   1
_chemical_formula_structural   H7C17
_chemical_formula_sum   'H28 C68'
_cell_volume   14443.71798114
_cell_formula_units_Z   4
loop_
 _symmetry_equiv_pos_site_id
 _symmetry_equiv_pos_as_xyz
  1  'x, y, z'
loop_
 _atom_site_type_symbol
 _atom_site_label
 _atom_site_symmetry_multiplicity
 _atom_site_fract_x
 _atom_site_fract_y
 _atom_site_fract_z
 _atom_site_occupancy
  C  C0  1  0.50000017  0.28713222  0.67014509  1
  C  C1  1  0.50000024  0.28734722  0.91297712  1
  C  C2  1  0.50000012  0.31656318  0.71202967  1
  C  C3  1  0.50000031  0.31735383  0.95079478  1
  C  C4  1  0.49999974  0.28754331  0.59205820  1
  C  C5  1  0.50000005  0.28704703  0.83489550  1
  C  C6  1  0.50000003  0.34779833  0.67413009  1
  C  C7  1  0.50000008  0.34773221  0.91085988  1
  C  C8  1  0.50000006  0.37902411  0.71272758  1
  C  C9  1  0.49999974  0.37831487  0.94905393  1
  C  C10  1  0.49999959  0.31762020  0.55447499  1
  C  C11  1  0.50000014  0.31652151  0.79319695  1
  C  C12  1  0.49999993  0.34794434  0.59464883  1
  C  C13  1  0.50000012  0.34769583  0.83138382  1
  C  C14  1  0.50000005  0.40956915  0.67268890  1
  C  C15  1  0.49999986  0.40915844  0.91404827  1
  C  C16  1  0.49999996  0.44050525  0.71306703  1
  C  C17  1  0.50000013  0.42462840  0.21430012  1
  C  C18  1  0.49999992  0.44037968  0.95750915  1
  C  C19  1  0.50000016  0.43793125  0.47064754  1
  C  C20  1  0.50000014  0.37857904  0.55668106  1
  C  C21  1  0.50000004  0.37898149  0.79310309  1
  C  C22  1  0.50000015  0.40936401  0.59197464  1
  C  C23  1  0.49999996  0.40948107  0.83334257  1
  C  C24  1  0.49999985  0.47112340  0.67290778  1
  C  C25  1  0.49999904  0.45408109  0.17129203  1
  C  C26  1  0.50000052  0.47146219  0.91459652  1
  C  C27  1  0.50000018  0.46087224  0.41115770  1
  C  C28  1  0.49999982  0.50181023  0.71324809  1
  C  C29  1  0.50000189  0.50232503  0.94916832  1
  C  C30  1  0.50000013  0.44064962  0.54867829  1
  C  C31  1  0.49999969  0.43755359  0.03554415  1
  C  C32  1  0.49999994  0.44047335  0.79315011  1
  C  C33  1  0.50000022  0.42477081  0.29234312  1
  C  C34  1  0.49999986  0.47168143  0.59174255  1
  C  C35  1  0.49999855  0.46048077  0.09500271  1
  C  C36  1  0.50000014  0.47103406  0.83346868  1
  C  C37  1  0.50000020  0.45435964  0.33490050  1
  C  C38  1  0.49999926  0.53298132  0.67521264  1
  C  C39  1  0.50000188  0.53311190  0.91128352  1
  C  C40  1  0.49999930  0.56373793  0.71378262  1
  C  C41  1  0.50000247  0.56322301  0.95035867  1
  C  C42  1  0.49999945  0.50260329  0.55733216  1
  C  C43  1  0.50000028  0.50175550  0.79327085  1
  C  C44  1  0.49999884  0.53334605  0.59543460  1
  C  C45  1  0.50000092  0.53288441  0.83151728  1
  C  C46  1  0.49999841  0.59454772  0.67439337  1
  C  C47  1  0.50000227  0.59421824  0.91316948  1
  C  C48  1  0.49999887  0.62520501  0.71361817  1
  C  C49  1  0.50000258  0.62466331  0.95150057  1
  C  C50  1  0.49999797  0.56351867  0.55657155  1
  C  C51  1  0.50000053  0.56368551  0.79315271  1
  C  C52  1  0.49999768  0.59446181  0.59398654  1
  C  C53  1  0.50000128  0.59442191  0.83277581  1
  C  C54  1  0.49999830  0.65596363  0.67408927  1
  C  C55  1  0.50000223  0.65538881  0.91382596  1
  C  C56  1  0.49999911  0.68706369  0.71305514  1
  C  C57  1  0.50000221  0.68605384  0.95330679  1
  C  C58  1  0.49999749  0.62495084  0.55583705  1
  C  C59  1  0.50000053  0.62514571  0.79381274  1
  C  C60  1  0.49999769  0.65561507  0.59378545  1
  C  C61  1  0.50000115  0.65585621  0.83353777  1
  C  C62  1  0.49999944  0.71651276  0.67133672  1
  C  C63  1  0.50000100  0.71593089  0.91506053  1
  C  C64  1  0.49999818  0.68633685  0.55453694  1
  C  C65  1  0.50000012  0.68701188  0.79480217  1
  C  C66  1  0.49999913  0.71615269  0.59301526  1
  C  C67  1  0.49999998  0.71639210  0.83674632  1
  H  H68  1  0.50000056  0.26302319  0.69835026  1
  H  H69  1  0.50000024  0.26377572  0.94360355  1
  H  H70  1  0.49999952  0.26402456  0.56119965  1
  H  H71  1  0.49999978  0.26297977  0.80656039  1
  H  H72  1  0.50000031  0.74063112  0.69953510  1
  H  H73  1  0.50000059  0.73954950  0.94559505  1
  H  H74  1  0.50000006  0.73981248  0.56262950  1
  H  H75  1  0.49999891  0.74054642  0.80870148  1
  H  H76  1  0.49999824  0.68596411  0.49351457  1
  H  H77  1  0.49999922  0.31845326  0.49348733  1
  H  H78  1  0.49999785  0.62494276  0.49480300  1
  H  H79  1  0.50000035  0.37661521  0.49610854  1
  H  H80  1  0.50000060  0.40030618  0.18638494  1
  H  H81  1  0.50000014  0.41237079  0.44996185  1
  H  H82  1  0.50000047  0.41198265  0.05616013  1
  H  H83  1  0.50000032  0.40053199  0.32062062  1
  H  H84  1  0.49999767  0.56322914  0.49548947  1
  H  H85  1  0.49999811  0.47710875  0.20387964  1
  H  H86  1  0.50000019  0.48755723  0.42139480  1
  H  H87  1  0.49999664  0.48713468  0.08446021  1
  H  H88  1  0.50000026  0.47731181  0.30199785  1
  H  H89  1  0.49999953  0.50456970  0.49732257  1
  H  H90  1  0.50000050  0.31806725  0.01177686  1
  H  H91  1  0.49999935  0.37625400  0.00960983  1
  H  H92  1  0.50000323  0.50419216  0.00916478  1
  H  H93  1  0.50000270  0.56286562  0.01143801  1
  H  H94  1  0.50000255  0.62457639  0.01252500  1
  H  H95  1  0.50000284  0.68559147  0.01431655  1
