# generated using pymatgen
data_H13C36
_symmetry_space_group_name_H-M   'P 1'
_cell_length_a   20.00000000
_cell_length_b   40.19450000
_cell_length_c   17.31877381
_cell_angle_alpha   90.00000000
_cell_angle_beta   90.00000000
_cell_angle_gamma   90.00000000
_symmetry_Int_Tables_number   1
_chemical_formula_structural   H13C36
_chemical_formula_sum   'H26 C72'
_cell_volume   13922.38907788
_cell_formula_units_Z   2
loop_
 _symmetry_equiv_pos_site_id
 _symmetry_equiv_pos_as_xyz
  1  'x, y, z'
loop_
 _atom_site_type_symbol
 _atom_site_label
 _atom_site_symmetry_multiplicity
 _atom_site_fract_x
 _atom_site_fract_y
 _atom_site_fract_z
 _atom_site_occupancy
  C  C0  1  0.50000001  0.28528928  0.66776227  1
  C  C1  1  0.49999997  0.28471825  0.91642073  1
  C  C2  1  0.49999999  0.31514068  0.70998382  1
  C  C3  1  0.50000000  0.31462176  0.95682985  1
  C  C4  1  0.50000001  0.28546638  0.58733620  1
  C  C5  1  0.49999997  0.28495332  0.83603860  1
  C  C6  1  0.49999999  0.34610030  0.66941534  1
  C  C7  1  0.50000000  0.34541135  0.91810128  1
  C  C8  1  0.49999999  0.37718597  0.71119565  1
  C  C9  1  0.50000000  0.37783404  0.21259811  1
  C  C10  1  0.49999999  0.37692050  0.96022927  1
  C  C11  1  0.50000001  0.37822218  0.46406020  1
  C  C12  1  0.50000000  0.31549509  0.54751685  1
  C  C13  1  0.49999999  0.31496806  0.79441641  1
  C  C14  1  0.50000000  0.34605330  0.58689147  1
  C  C15  1  0.49999998  0.34578343  0.83554225  1
  C  C16  1  0.50000000  0.40784250  0.67028871  1
  C  C17  1  0.50000001  0.40751744  0.16916194  1
  C  C18  1  0.49999996  0.40750533  0.91837978  1
  C  C19  1  0.50000002  0.40791232  0.42166336  1
  C  C20  1  0.49999999  0.43879911  0.71151782  1
  C  C21  1  0.50000000  0.43732898  0.21210839  1
  C  C22  1  0.49999996  0.43801165  0.96051697  1
  C  C23  1  0.50000004  0.43771039  0.46402559  1
  C  C24  1  0.50000002  0.37749310  0.54502698  1
  C  C25  1  0.50000001  0.37765845  0.04123448  1
  C  C26  1  0.49999997  0.37704027  0.79401988  1
  C  C27  1  0.49999999  0.37797449  0.29301663  1
  C  C28  1  0.50000003  0.40797376  0.58706553  1
  C  C29  1  0.50000000  0.40739624  0.08356326  1
  C  C30  1  0.49999998  0.40759610  0.83528099  1
  C  C31  1  0.50000000  0.40779044  0.33599772  1
  C  C32  1  0.49999996  0.46960053  0.67018761  1
  C  C33  1  0.50000003  0.46973642  0.91886097  1
  C  C34  1  0.49999998  0.50032249  0.71144519  1
  C  C35  1  0.50000004  0.50006505  0.95713525  1
  C  C36  1  0.50000004  0.43847352  0.54487126  1
  C  C37  1  0.49999998  0.43719476  0.04123281  1
  C  C38  1  0.50000001  0.43868056  0.79433695  1
  C  C39  1  0.49999999  0.43745826  0.29254652  1
  C  C40  1  0.49999997  0.47011475  0.58690941  1
  C  C41  1  0.50000007  0.46942725  0.83559836  1
  C  C42  1  0.49999985  0.53124147  0.67126887  1
  C  C43  1  0.50000026  0.53103514  0.91788899  1
  C  C44  1  0.49999995  0.56196804  0.71180750  1
  C  C45  1  0.50000036  0.56128832  0.95782038  1
  C  C46  1  0.49999991  0.50049307  0.54891687  1
  C  C47  1  0.50000012  0.50020750  0.79437563  1
  C  C48  1  0.49999973  0.53145639  0.58815476  1
  C  C49  1  0.50000028  0.53103425  0.83476455  1
  C  C50  1  0.49999969  0.59276637  0.67097140  1
  C  C51  1  0.50000064  0.59218320  0.91888054  1
  C  C52  1  0.49999991  0.62341414  0.71188924  1
  C  C53  1  0.50000071  0.62256713  0.95880407  1
  C  C54  1  0.49999952  0.56179065  0.54825921  1
  C  C55  1  0.50000029  0.56184173  0.79439592  1
  C  C56  1  0.49999935  0.59270022  0.58739367  1
  C  C57  1  0.50000053  0.59252272  0.83543942  1
  C  C58  1  0.49999969  0.65424103  0.67116082  1
  C  C59  1  0.50000071  0.65328400  0.91983286  1
  C  C60  1  0.50000000  0.68531660  0.71183096  1
  C  C61  1  0.50000059  0.68377965  0.96133696  1
  C  C62  1  0.49999911  0.62332611  0.54815286  1
  C  C63  1  0.50000038  0.62327817  0.79501872  1
  C  C64  1  0.49999926  0.65395296  0.58783085  1
  C  C65  1  0.50000053  0.65390961  0.83653194  1
  C  C66  1  0.50000001  0.71483644  0.66877056  1
  C  C67  1  0.50000028  0.71375796  0.92215897  1
  C  C68  1  0.49999926  0.68476779  0.54745310  1
  C  C69  1  0.50000029  0.68514875  0.79671008  1
  C  C70  1  0.49999967  0.71455116  0.58753602  1
  C  C71  1  0.50000015  0.71439812  0.84086020  1
  H  H72  1  0.50000005  0.26135325  0.69769427  1
  H  H73  1  0.49999994  0.26099858  0.94769938  1
  H  H74  1  0.50000003  0.26192629  0.55543342  1
  H  H75  1  0.49999994  0.26110787  0.80574559  1
  H  H76  1  0.50000037  0.73891846  0.69822746  1
  H  H77  1  0.50000008  0.73725198  0.95440190  1
  H  H78  1  0.49999985  0.73823017  0.55609228  1
  H  H79  1  0.49999977  0.73864122  0.81223834  1
  H  H80  1  0.49999905  0.68451956  0.48416758  1
  H  H81  1  0.50000002  0.31485240  0.48447989  1
  H  H82  1  0.50000001  0.35360195  0.18375216  1
  H  H83  1  0.49999999  0.35468811  0.43290711  1
  H  H84  1  0.50000003  0.35414225  0.07252193  1
  H  H85  1  0.49999998  0.35383175  0.32223866  1
  H  H86  1  0.49999895  0.62349612  0.48476323  1
  H  H87  1  0.49999956  0.56169597  0.48488385  1
  H  H88  1  0.50000011  0.50162324  0.48587250  1
  H  H89  1  0.50000000  0.46148284  0.18290311  1
  H  H90  1  0.50000003  0.46126332  0.43287461  1
  H  H91  1  0.50000000  0.46068764  0.07265840  1
  H  H92  1  0.49999998  0.46168380  0.32139369  1
  H  H93  1  0.50000002  0.31364109  0.01985471  1
  H  H94  1  0.49999977  0.50108803  0.02025183  1
  H  H95  1  0.50000012  0.56109232  0.02112117  1
  H  H96  1  0.50000064  0.62244700  0.02211827  1
  H  H97  1  0.50000074  0.68299689  0.02462674  1
