# generated using pymatgen
data_HC6
_symmetry_space_group_name_H-M   'P 1'
_cell_length_a   20.00000000
_cell_length_b   40.19450000
_cell_length_c   17.25916065
_cell_angle_alpha   90.00000000
_cell_angle_beta   90.00000000
_cell_angle_gamma   90.00000000
_symmetry_Int_Tables_number   1
_chemical_formula_structural   HC6
_chemical_formula_sum   'H18 C108'
_cell_volume   13874.46665846
_cell_formula_units_Z   18
loop_
 _symmetry_equiv_pos_site_id
 _symmetry_equiv_pos_as_xyz
  1  'x, y, z'
loop_
 _atom_site_type_symbol
 _atom_site_label
 _atom_site_symmetry_multiplicity
 _atom_site_fract_x
 _atom_site_fract_y
 _atom_site_fract_z
 _atom_site_occupancy
  C  C0  1  0.49999998  0.28545443  0.66436506  1
  C  C1  1  0.50000001  0.28559017  0.91519472  1
  C  C2  1  0.49999999  0.31559245  0.70832611  1
  C  C3  1  0.50000000  0.31590907  0.20990821  1
  C  C4  1  0.50000000  0.31602308  0.95761810  1
  C  C5  1  0.50000001  0.31630360  0.46093710  1
  C  C6  1  0.49999999  0.28559498  0.58484304  1
  C  C7  1  0.50000001  0.28545255  0.83567222  1
  C  C8  1  0.50000000  0.34649508  0.66732558  1
  C  C9  1  0.49999999  0.34571962  0.16670556  1
  C  C10  1  0.50000000  0.34670012  0.91571982  1
  C  C11  1  0.50000001  0.34577254  0.41796822  1
  C  C12  1  0.50000000  0.37738837  0.70872301  1
  C  C13  1  0.49999999  0.37632887  0.20826577  1
  C  C14  1  0.49999999  0.37716526  0.95793750  1
  C  C15  1  0.50000001  0.37682169  0.45915155  1
  C  C16  1  0.50000000  0.31602180  0.54240487  1
  C  C17  1  0.49999999  0.31630143  0.03908644  1
  C  C18  1  0.50000000  0.31559315  0.79172348  1
  C  C19  1  0.50000000  0.31591511  0.29011781  1
  C  C20  1  0.50000000  0.34669699  0.58432235  1
  C  C21  1  0.49999999  0.34576643  0.08207070  1
  C  C22  1  0.50000000  0.34649605  0.83272549  1
  C  C23  1  0.50000001  0.34572318  0.33332397  1
  C  C24  1  0.50000001  0.40810466  0.66682094  1
  C  C25  1  0.49999999  0.40723509  0.16631660  1
  C  C26  1  0.50000000  0.40804467  0.91636715  1
  C  C27  1  0.50000001  0.40742377  0.41697589  1
  C  C28  1  0.50000000  0.43883598  0.70841391  1
  C  C29  1  0.50000000  0.43764513  0.20812829  1
  C  C30  1  0.50000000  0.43854558  0.95806716  1
  C  C31  1  0.50000001  0.43814178  0.45863883  1
  C  C32  1  0.50000001  0.37716553  0.54211703  1
  C  C33  1  0.49999999  0.37682189  0.04089207  1
  C  C34  1  0.50000000  0.37739100  0.79133579  1
  C  C35  1  0.50000000  0.37632718  0.29176854  1
  C  C36  1  0.50000001  0.40804238  0.58370465  1
  C  C37  1  0.49999999  0.40744584  0.08298124  1
  C  C38  1  0.50000000  0.40811059  0.83323686  1
  C  C39  1  0.50000001  0.40722990  0.33371077  1
  C  C40  1  0.50000000  0.46957294  0.66674852  1
  C  C41  1  0.50000000  0.46829961  0.16631398  1
  C  C42  1  0.50000000  0.46939131  0.91628139  1
  C  C43  1  0.50000000  0.46867971  0.41684871  1
  C  C44  1  0.50000000  0.50043748  0.70838948  1
  C  C45  1  0.50000000  0.49879484  0.20835605  1
  C  C46  1  0.50000000  0.50010989  0.95789996  1
  C  C47  1  0.50000000  0.49950557  0.45889469  1
  C  C48  1  0.50000001  0.43856123  0.54207899  1
  C  C49  1  0.49999999  0.43814853  0.04142088  1
  C  C50  1  0.50000000  0.43883507  0.79162978  1
  C  C51  1  0.50000000  0.43764775  0.29192547  1
  C  C52  1  0.50000001  0.46939879  0.58380443  1
  C  C53  1  0.50000000  0.46867645  0.08321816  1
  C  C54  1  0.50000000  0.46956647  0.83332873  1
  C  C55  1  0.50000000  0.46830290  0.33374663  1
  C  C56  1  0.50000000  0.53114213  0.66697481  1
  C  C57  1  0.50000001  0.52923497  0.16634899  1
  C  C58  1  0.50000001  0.53100712  0.91631814  1
  C  C59  1  0.50000000  0.52986050  0.41715895  1
  C  C60  1  0.50000000  0.56217054  0.70839838  1
  C  C61  1  0.50000000  0.55947204  0.20851706  1
  C  C62  1  0.50000001  0.56173350  0.95819859  1
  C  C63  1  0.49999999  0.56066148  0.45907208  1
  C  C64  1  0.50000000  0.50011400  0.54217713  1
  C  C65  1  0.50000000  0.49949539  0.04118028  1
  C  C66  1  0.50000000  0.50043750  0.79168401  1
  C  C67  1  0.50000000  0.49879891  0.29170637  1
  C  C68  1  0.50000000  0.53101043  0.58376271  1
  C  C69  1  0.50000001  0.52984672  0.08290558  1
  C  C70  1  0.50000000  0.53114600  0.83310282  1
  C  C71  1  0.50000000  0.52924293  0.33370814  1
  C  C72  1  0.49999999  0.59298855  0.66654083  1
  C  C73  1  0.50000000  0.58991887  0.16622176  1
  C  C74  1  0.50000002  0.59322456  0.91748747  1
  C  C75  1  0.49999999  0.59098177  0.41686597  1
  C  C76  1  0.49999999  0.62361046  0.70836933  1
  C  C77  1  0.49999999  0.61957714  0.20915506  1
  C  C78  1  0.50000002  0.62385865  0.95968330  1
  C  C79  1  0.49999999  0.62217044  0.45679421  1
  C  C80  1  0.49999999  0.56173278  0.54185923  1
  C  C81  1  0.50000001  0.56064672  0.04099173  1
  C  C82  1  0.50000000  0.56217464  0.79167060  1
  C  C83  1  0.50000000  0.55947742  0.29153814  1
  C  C84  1  0.49999998  0.59322112  0.58255669  1
  C  C85  1  0.50000001  0.59096189  0.08319461  1
  C  C86  1  0.50000001  0.59299758  0.83351960  1
  C  C87  1  0.50000000  0.58992729  0.33383354  1
  C  C88  1  0.49999999  0.65460411  0.66643636  1
  C  C89  1  0.49999997  0.64983450  0.16992092  1
  C  C90  1  0.50000002  0.65543185  0.91688848  1
  C  C91  1  0.50000000  0.65058036  0.40846201  1
  C  C92  1  0.50000001  0.68519320  0.70836286  1
  C  C93  1  0.50000001  0.68777194  0.94971523  1
  C  C94  1  0.49999998  0.62386437  0.54039763  1
  C  C95  1  0.50000001  0.62213986  0.04326482  1
  C  C96  1  0.50000001  0.62361388  0.79175703  1
  C  C97  1  0.50000000  0.61957708  0.29087093  1
  C  C98  1  0.49999998  0.65541229  0.58327700  1
  C  C99  1  0.49999999  0.65055831  0.09153257  1
  C  C100  1  0.50000001  0.65460455  0.83364485  1
  C  C101  1  0.50000002  0.64983433  0.33008836  1
  C  C102  1  0.50000006  0.71605378  0.67087318  1
  C  C103  1  0.49999996  0.71719023  0.90848907  1
  C  C104  1  0.49999999  0.68773222  0.55040568  1
  C  C105  1  0.49999999  0.68519884  0.79174366  1
  C  C106  1  0.50000004  0.71716746  0.59155287  1
  C  C107  1  0.49999995  0.71607486  0.82917491  1
  H  H108  1  0.49999997  0.26146102  0.69421195  1
  H  H109  1  0.50000002  0.26206578  0.94741614  1
  H  H110  1  0.49999998  0.26206987  0.55262841  1
  H  H111  1  0.50000003  0.26146850  0.80578914  1
  H  H112  1  0.50000009  0.73944689  0.70239736  1
  H  H113  1  0.49999994  0.74093892  0.93954810  1
  H  H114  1  0.50000006  0.74091284  0.56046760  1
  H  H115  1  0.49999991  0.73945177  0.79760703  1
  H  H116  1  0.49999999  0.29190615  0.18008099  1
  H  H117  1  0.50000000  0.29217068  0.43161693  1
  H  H118  1  0.50000000  0.29216427  0.06838333  1
  H  H119  1  0.50000001  0.29191905  0.31996493  1
  H  H120  1  0.49999994  0.67361399  0.20002670  1
  H  H121  1  0.50000002  0.67540323  0.42924553  1
  H  H122  1  0.49999998  0.67534404  0.07055898  1
  H  H123  1  0.50000006  0.67359721  0.29991078  1
  H  H124  1  0.49999995  0.69294038  0.48989676  1
  H  H125  1  0.50000004  0.69305393  0.01020914  1
