# generated using pymatgen
data_H7C17
_symmetry_space_group_name_H-M   'P 1'
_cell_length_a   20.00000000
_cell_length_b   40.19450000
_cell_length_c   17.55788935
_cell_angle_alpha   90.00000000
_cell_angle_beta   90.00000000
_cell_angle_gamma   90.00000000
_symmetry_Int_Tables_number   1
_chemical_formula_structural   H7C17
_chemical_formula_sum   'H28 C68'
_cell_volume   14114.61166696
_cell_formula_units_Z   4
loop_
 _symmetry_equiv_pos_site_id
 _symmetry_equiv_pos_as_xyz
  1  'x, y, z'
loop_
 _atom_site_type_symbol
 _atom_site_label
 _atom_site_symmetry_multiplicity
 _atom_site_fract_x
 _atom_site_fract_y
 _atom_site_fract_z
 _atom_site_occupancy
  C  C0  1  0.49999999  0.28637784  0.66825612  1
  C  C1  1  0.49999996  0.28277658  0.16282269  1
  C  C2  1  0.50000000  0.28553005  0.91316246  1
  C  C3  1  0.50000007  0.28484622  0.42145745  1
  C  C4  1  0.50000000  0.31656544  0.71091990  1
  C  C5  1  0.50000002  0.31014895  0.21231381  1
  C  C6  1  0.49999996  0.31503330  0.95806871  1
  C  C7  1  0.50000008  0.31388048  0.46547121  1
  C  C8  1  0.50000005  0.28607528  0.59019646  1
  C  C9  1  0.49999992  0.28438270  0.08284986  1
  C  C10  1  0.50000001  0.28608836  0.83504425  1
  C  C11  1  0.50000003  0.28301370  0.34164019  1
  C  C12  1  0.50000004  0.34713635  0.67007292  1
  C  C13  1  0.49999998  0.34682995  0.91693752  1
  C  C14  1  0.50000006  0.37784234  0.71126072  1
  C  C15  1  0.49999995  0.37743772  0.95429382  1
  C  C16  1  0.50000008  0.31566551  0.54577878  1
  C  C17  1  0.49999992  0.31329116  0.03840154  1
  C  C18  1  0.50000001  0.31643406  0.79286627  1
  C  C19  1  0.50000003  0.31029662  0.29201855  1
  C  C20  1  0.50000008  0.34734550  0.58727309  1
  C  C21  1  0.50000001  0.34688523  0.83414526  1
  C  C22  1  0.50000002  0.40863695  0.67173924  1
  C  C23  1  0.50000010  0.40831300  0.91545032  1
  C  C24  1  0.50000006  0.43944886  0.71197378  1
  C  C25  1  0.50000022  0.43871411  0.95495183  1
  C  C26  1  0.50000006  0.37805259  0.55032766  1
  C  C27  1  0.50000006  0.37770065  0.79338253  1
  C  C28  1  0.49999990  0.40885056  0.58961255  1
  C  C29  1  0.50000015  0.40836284  0.83336703  1
  C  C30  1  0.49999986  0.47011930  0.67185172  1
  C  C31  1  0.50000045  0.46963780  0.91671956  1
  C  C32  1  0.50000005  0.50080082  0.71240750  1
  C  C33  1  0.50000068  0.50019942  0.95586446  1
  C  C34  1  0.49999962  0.43941297  0.55065650  1
  C  C35  1  0.50000023  0.43929217  0.79363882  1
  C  C36  1  0.49999948  0.47022628  0.58936414  1
  C  C37  1  0.50000040  0.46979256  0.83425198  1
  C  C38  1  0.49999976  0.53156831  0.67236735  1
  C  C39  1  0.50000085  0.53102385  0.91725813  1
  C  C40  1  0.50000003  0.56215344  0.71292774  1
  C  C41  1  0.50000101  0.56159324  0.95625702  1
  C  C42  1  0.49999904  0.50092092  0.55064928  1
  C  C43  1  0.50000044  0.50061207  0.79416201  1
  C  C44  1  0.49999909  0.53163382  0.58978007  1
  C  C45  1  0.50000068  0.53123556  0.83468182  1
  C  C46  1  0.49999965  0.59308693  0.67296876  1
  C  C47  1  0.50000100  0.59241221  0.91769878  1
  C  C48  1  0.49999996  0.62363853  0.71344732  1
  C  C49  1  0.50000108  0.62290070  0.95703077  1
  C  C50  1  0.49999862  0.56234276  0.55131078  1
  C  C51  1  0.50000055  0.56196058  0.79467232  1
  C  C52  1  0.49999889  0.59306583  0.59047884  1
  C  C53  1  0.50000071  0.59274780  0.83523131  1
  C  C54  1  0.49999967  0.65456547  0.67334730  1
  C  C55  1  0.50000094  0.65365179  0.91869221  1
  C  C56  1  0.50000006  0.68551389  0.71358396  1
  C  C57  1  0.50000086  0.68424506  0.95941017  1
  C  C58  1  0.49999855  0.62377174  0.55196693  1
  C  C59  1  0.50000052  0.62346168  0.79553476  1
  C  C60  1  0.49999900  0.65437242  0.59116355  1
  C  C61  1  0.50000065  0.65419328  0.83650574  1
  C  C62  1  0.50000016  0.71513252  0.67132757  1
  C  C63  1  0.50000044  0.71418803  0.92045069  1
  C  C64  1  0.49999888  0.68522962  0.55142605  1
  C  C65  1  0.50000036  0.68536172  0.79717828  1
  C  C66  1  0.49999954  0.71495147  0.59125533  1
  C  C67  1  0.50000019  0.71475456  0.84033381  1
  H  H68  1  0.49999995  0.26243473  0.69765367  1
  H  H69  1  0.49999995  0.25764926  0.18744523  1
  H  H70  1  0.49999998  0.26136089  0.94183997  1
  H  H71  1  0.50000010  0.26083819  0.45116970  1
  H  H72  1  0.50000011  0.26199561  0.56124628  1
  H  H73  1  0.49999989  0.26026492  0.05366369  1
  H  H74  1  0.50000003  0.26232215  0.80480224  1
  H  H75  1  0.50000000  0.25786626  0.31716666  1
  H  H76  1  0.50000076  0.73916543  0.70055750  1
  H  H77  1  0.50000018  0.73778251  0.95181535  1
  H  H78  1  0.49999961  0.73873148  0.56060969  1
  H  H79  1  0.49999978  0.73896552  0.81188835  1
  H  H80  1  0.49999830  0.68506397  0.48895247  1
  H  H81  1  0.49999797  0.62397365  0.48949878  1
  H  H82  1  0.49999815  0.56246257  0.48884610  1
  H  H83  1  0.49999861  0.50104962  0.48812188  1
  H  H84  1  0.49999944  0.43944230  0.48817032  1
  H  H85  1  0.50000013  0.37921264  0.48805004  1
  H  H86  1  0.50000006  0.33487055  0.18581343  1
  H  H87  1  0.50000006  0.33747014  0.43441305  1
  H  H88  1  0.49999989  0.33694937  0.06926062  1
  H  H89  1  0.50000007  0.33514334  0.31799852  1
  H  H90  1  0.49999983  0.37853497  0.01654166  1
  H  H91  1  0.50000020  0.43842727  0.01743405  1
  H  H92  1  0.50000075  0.50012792  0.01834944  1
  H  H93  1  0.50000118  0.56163101  0.01871010  1
  H  H94  1  0.50000132  0.62286801  0.01950214  1
  H  H95  1  0.50000095  0.68364142  0.02187364  1
