# generated using pymatgen
data_H13C40
_symmetry_space_group_name_H-M   'P 1'
_cell_length_a   20.00000000
_cell_length_b   40.19450000
_cell_length_c   17.69316675
_cell_angle_alpha   90.00000000
_cell_angle_beta   90.00000000
_cell_angle_gamma   90.00000000
_symmetry_Int_Tables_number   1
_chemical_formula_structural   H13C40
_chemical_formula_sum   'H26 C80'
_cell_volume   14223.35981526
_cell_formula_units_Z   2
loop_
 _symmetry_equiv_pos_site_id
 _symmetry_equiv_pos_as_xyz
  1  'x, y, z'
loop_
 _atom_site_type_symbol
 _atom_site_label
 _atom_site_symmetry_multiplicity
 _atom_site_fract_x
 _atom_site_fract_y
 _atom_site_fract_z
 _atom_site_occupancy
  C  C0  1  0.49999989  0.28494820  0.67241139  1
  C  C1  1  0.50000007  0.28363538  0.90508439  1
  C  C2  1  0.49999996  0.31588564  0.70903519  1
  C  C3  1  0.50000000  0.31303403  0.94548432  1
  C  C4  1  0.49999992  0.28361628  0.59489744  1
  C  C5  1  0.50000009  0.28495299  0.82754572  1
  C  C6  1  0.49999998  0.34640802  0.66763434  1
  C  C7  1  0.50000000  0.34791042  0.16788338  1
  C  C8  1  0.49999999  0.34534998  0.91393574  1
  C  C9  1  0.49999999  0.34795389  0.40950523  1
  C  C10  1  0.50000000  0.37753398  0.70852586  1
  C  C11  1  0.50000000  0.37759549  0.20938222  1
  C  C12  1  0.49999997  0.37621132  0.95913608  1
  C  C13  1  0.49999999  0.37657394  0.45793853  1
  C  C14  1  0.49999998  0.31301044  0.55443888  1
  C  C15  1  0.50000002  0.31588692  0.79091833  1
  C  C16  1  0.49999998  0.34533921  0.58597985  1
  C  C17  1  0.50000003  0.34792747  0.09053459  1
  C  C18  1  0.49999999  0.34640799  0.83228681  1
  C  C19  1  0.50000001  0.34791333  0.33213958  1
  C  C20  1  0.50000002  0.40769102  0.66606486  1
  C  C21  1  0.50000001  0.40736118  0.16596973  1
  C  C22  1  0.49999993  0.40749903  0.91815325  1
  C  C23  1  0.50000000  0.40748687  0.41692813  1
  C  C24  1  0.49999997  0.43834838  0.70871183  1
  C  C25  1  0.50000001  0.43707192  0.20951791  1
  C  C26  1  0.49999996  0.43873465  0.95926937  1
  C  C27  1  0.50000002  0.43849944  0.45795219  1
  C  C28  1  0.50000001  0.37622445  0.54083664  1
  C  C29  1  0.50000001  0.37654468  0.04205567  1
  C  C30  1  0.49999996  0.37752835  0.79140724  1
  C  C31  1  0.50000000  0.37758977  0.29060968  1
  C  C32  1  0.50000003  0.40751540  0.58184145  1
  C  C33  1  0.50000000  0.40747329  0.08304971  1
  C  C34  1  0.49999994  0.40767249  0.83390826  1
  C  C35  1  0.50000000  0.40736268  0.33402325  1
  C  C36  1  0.49999992  0.46914980  0.66850383  1
  C  C37  1  0.49999999  0.46679715  0.16822502  1
  C  C38  1  0.50000004  0.46969062  0.91390031  1
  C  C39  1  0.50000003  0.46706343  0.40908598  1
  C  C40  1  0.49999991  0.50002717  0.70954897  1
  C  C41  1  0.50000020  0.50127182  0.94582749  1
  C  C42  1  0.50000002  0.43875044  0.54072087  1
  C  C43  1  0.49999997  0.43848263  0.04205072  1
  C  C44  1  0.49999996  0.43833294  0.79126612  1
  C  C45  1  0.50000000  0.43708061  0.29053399  1
  C  C46  1  0.49999993  0.46971994  0.58607355  1
  C  C47  1  0.49999995  0.46703374  0.09096085  1
  C  C48  1  0.50000000  0.46912888  0.83148019  1
  C  C49  1  0.50000002  0.46681430  0.33182129  1
  C  C50  1  0.49999978  0.53156896  0.67219965  1
  C  C51  1  0.50000035  0.53193708  0.90801075  1
  C  C52  1  0.49999983  0.56262533  0.71006779  1
  C  C53  1  0.50000062  0.56186926  0.94873342  1
  C  C54  1  0.49999981  0.50131399  0.55419087  1
  C  C55  1  0.50000001  0.50001242  0.79046124  1
  C  C56  1  0.49999964  0.53197648  0.59205431  1
  C  C57  1  0.50000017  0.53154135  0.82785910  1
  C  C58  1  0.49999963  0.59332624  0.66979489  1
  C  C59  1  0.50000068  0.59301201  0.91190111  1
  C  C60  1  0.49999979  0.62401523  0.70943710  1
  C  C61  1  0.50000087  0.62344065  0.95097585  1
  C  C62  1  0.49999938  0.56192240  0.55139079  1
  C  C63  1  0.50000013  0.56261030  0.79004643  1
  C  C64  1  0.49999934  0.59305672  0.58825785  1
  C  C65  1  0.50000038  0.59330369  0.83036155  1
  C  C66  1  0.49999964  0.65473300  0.66915908  1
  C  C67  1  0.50000073  0.65415842  0.91263387  1
  C  C68  1  0.49999987  0.68586892  0.70856825  1
  C  C69  1  0.50000071  0.68479200  0.95279818  1
  C  C70  1  0.49999921  0.62349741  0.54922275  1
  C  C71  1  0.50000022  0.62400309  0.79075511  1
  C  C72  1  0.49999937  0.65420760  0.58761099  1
  C  C73  1  0.50000042  0.65470731  0.83108652  1
  C  C74  1  0.49999992  0.71525380  0.66588369  1
  C  C75  1  0.50000033  0.71468362  0.91403979  1
  C  C76  1  0.49999937  0.68485824  0.54749814  1
  C  C77  1  0.50000015  0.68585840  0.79173424  1
  C  C78  1  0.49999970  0.71473727  0.58631323  1
  C  C79  1  0.50000009  0.71522831  0.83447486  1
  H  H80  1  0.49999985  0.26159870  0.70344155  1
  H  H81  1  0.50000010  0.25977649  0.93507845  1
  H  H82  1  0.49999990  0.25976373  0.56485691  1
  H  H83  1  0.50000015  0.26160711  0.79652961  1
  H  H84  1  0.50000022  0.73944989  0.69420250  1
  H  H85  1  0.50000012  0.73824010  0.94532620  1
  H  H86  1  0.49999988  0.73830690  0.55507038  1
  H  H87  1  0.49999977  0.73943606  0.80621109  1
  H  H88  1  0.49999919  0.68432960  0.48554640  1
  H  H89  1  0.49999996  0.32371210  0.19601624  1
  H  H90  1  0.49999997  0.32294689  0.42989163  1
  H  H91  1  0.50000002  0.30848083  0.49512028  1
  H  H92  1  0.50000007  0.32290691  0.07020618  1
  H  H93  1  0.50000005  0.32371557  0.30403114  1
  H  H94  1  0.49999909  0.62344927  0.48723156  1
  H  H95  1  0.49999932  0.56113205  0.48938702  1
  H  H96  1  0.49999995  0.49091571  0.19660430  1
  H  H97  1  0.50000004  0.49228463  0.42833930  1
  H  H98  1  0.49999990  0.49225432  0.07171879  1
  H  H99  1  0.50000005  0.49092635  0.30337215  1
  H  H100  1  0.49999989  0.50522846  0.49475150  1
  H  H101  1  0.49999992  0.30855811  0.00481727  1
  H  H102  1  0.50000019  0.50515534  0.00527247  1
  H  H103  1  0.50000073  0.56105811  0.01074153  1
  H  H104  1  0.50000102  0.62337044  0.01296604  1
  H  H105  1  0.50000084  0.68424179  0.01474527  1
