# generated using pymatgen
data_H13C38
_symmetry_space_group_name_H-M   'P 1'
_cell_length_a   20.00000000
_cell_length_b   40.19450000
_cell_length_c   17.53189166
_cell_angle_alpha   90.00000000
_cell_angle_beta   90.00000000
_cell_angle_gamma   90.00000000
_symmetry_Int_Tables_number   1
_chemical_formula_structural   H13C38
_chemical_formula_sum   'H26 C76'
_cell_volume   14093.71238974
_cell_formula_units_Z   2
loop_
 _symmetry_equiv_pos_site_id
 _symmetry_equiv_pos_as_xyz
  1  'x, y, z'
loop_
 _atom_site_type_symbol
 _atom_site_label
 _atom_site_symmetry_multiplicity
 _atom_site_fract_x
 _atom_site_fract_y
 _atom_site_fract_z
 _atom_site_occupancy
  C  C0  1  0.49999994  0.28430689  0.67286062  1
  C  C1  1  0.50000023  0.28314300  0.90926200  1
  C  C2  1  0.49999989  0.31505031  0.71042838  1
  C  C3  1  0.50000055  0.31254732  0.95024008  1
  C  C4  1  0.49999995  0.28325861  0.59448578  1
  C  C5  1  0.49999978  0.28423136  0.83083311  1
  C  C6  1  0.49999993  0.34555331  0.66857268  1
  C  C7  1  0.49999990  0.35205846  0.17221928  1
  C  C8  1  0.50000016  0.34465994  0.91753722  1
  C  C9  1  0.49999999  0.35043155  0.40970856  1
  C  C10  1  0.49999995  0.37642679  0.71047411  1
  C  C11  1  0.50000012  0.38267107  0.21135380  1
  C  C12  1  0.50000006  0.37600182  0.96149672  1
  C  C13  1  0.49999996  0.37843782  0.45937260  1
  C  C14  1  0.49999992  0.31266423  0.55350558  1
  C  C15  1  0.49999985  0.31499141  0.79325038  1
  C  C16  1  0.49999993  0.34483265  0.58614979  1
  C  C17  1  0.49999963  0.35002956  0.09479784  1
  C  C18  1  0.49999997  0.34545987  0.83514439  1
  C  C19  1  0.50000004  0.35226767  0.33234921  1
  C  C20  1  0.49999997  0.40674839  0.66908107  1
  C  C21  1  0.50000008  0.41223685  0.16772039  1
  C  C22  1  0.50000003  0.40630073  0.91843222  1
  C  C23  1  0.49999997  0.41015293  0.42042406  1
  C  C24  1  0.49999997  0.43759924  0.71104584  1
  C  C25  1  0.50000003  0.44219589  0.21207733  1
  C  C26  1  0.50000002  0.43754422  0.95849570  1
  C  C27  1  0.49999997  0.43874950  0.46614249  1
  C  C28  1  0.49999994  0.37633659  0.54257452  1
  C  C29  1  0.49999994  0.37798357  0.04478625  1
  C  C30  1  0.49999998  0.37635071  0.79333755  1
  C  C31  1  0.50000008  0.38280844  0.29302698  1
  C  C32  1  0.49999997  0.40664833  0.58569526  1
  C  C33  1  0.50000007  0.40971638  0.08370872  1
  C  C34  1  0.50000000  0.40658882  0.83506590  1
  C  C35  1  0.50000003  0.41247585  0.33640838  1
  C  C36  1  0.50000006  0.46857887  0.67084487  1
  C  C37  1  0.49999990  0.46892703  0.91595481  1
  C  C38  1  0.50000005  0.49933857  0.71156597  1
  C  C39  1  0.49999987  0.49927044  0.95357365  1
  C  C40  1  0.50000000  0.43797258  0.54569737  1
  C  C41  1  0.50000010  0.43828104  0.03801019  1
  C  C42  1  0.49999994  0.43752169  0.79342884  1
  C  C43  1  0.50000003  0.44231457  0.29166512  1
  C  C44  1  0.50000012  0.46930059  0.58856461  1
  C  C45  1  0.49999985  0.46842905  0.83375795  1
  C  C46  1  0.50000021  0.53037014  0.67220246  1
  C  C47  1  0.49999976  0.53021624  0.91519064  1
  C  C48  1  0.50000018  0.56110002  0.71222274  1
  C  C49  1  0.49999968  0.56035929  0.95508117  1
  C  C50  1  0.50000025  0.49978231  0.55142978  1
  C  C51  1  0.49999986  0.49924951  0.79332930  1
  C  C52  1  0.50000033  0.53068128  0.59022996  1
  C  C53  1  0.49999985  0.53013400  0.83321605  1
  C  C54  1  0.50000015  0.59189864  0.67203313  1
  C  C55  1  0.50000005  0.59131562  0.91688848  1
  C  C56  1  0.50000021  0.62253079  0.71248294  1
  C  C57  1  0.50000020  0.62171453  0.95631027  1
  C  C58  1  0.50000028  0.56098494  0.55088657  1
  C  C59  1  0.50000005  0.56097003  0.79371001  1
  C  C60  1  0.49999999  0.59185052  0.58958528  1
  C  C61  1  0.50000026  0.59163062  0.83444652  1
  C  C62  1  0.49999992  0.65332537  0.67220353  1
  C  C63  1  0.50000069  0.65244543  0.91780707  1
  C  C64  1  0.50000023  0.68439110  0.71230991  1
  C  C65  1  0.50000056  0.68302575  0.95848961  1
  C  C66  1  0.49999943  0.62242946  0.55079620  1
  C  C67  1  0.50000051  0.62239199  0.79458635  1
  C  C68  1  0.49999929  0.65303644  0.58991608  1
  C  C69  1  0.50000080  0.65303134  0.83552000  1
  C  C70  1  0.50000013  0.71389076  0.66972476  1
  C  C71  1  0.50000040  0.71295170  0.91952485  1
  C  C72  1  0.49999894  0.68379948  0.54990324  1
  C  C73  1  0.50000065  0.68424499  0.79605378  1
  C  C74  1  0.49999951  0.71358385  0.58947743  1
  C  C75  1  0.50000047  0.71357301  0.83927390  1
  H  H76  1  0.49999993  0.26089558  0.70394266  1
  H  H77  1  0.50000046  0.25933417  0.93964776  1
  H  H78  1  0.49999995  0.25945971  0.56406048  1
  H  H79  1  0.49999956  0.26081911  0.79970487  1
  H  H80  1  0.50000058  0.73798557  0.69875580  1
  H  H81  1  0.49999989  0.73648788  0.95108464  1
  H  H82  1  0.49999964  0.73725365  0.55842403  1
  H  H83  1  0.50000003  0.73778639  0.81077567  1
  H  H84  1  0.49999835  0.68346125  0.48737593  1
  H  H85  1  0.49999980  0.32853326  0.20306824  1
  H  H86  1  0.49999999  0.32523023  0.42913932  1
  H  H87  1  0.49999984  0.30824908  0.49337401  1
  H  H88  1  0.49999892  0.32468813  0.07604253  1
  H  H89  1  0.50000003  0.32871582  0.30168614  1
  H  H90  1  0.49999912  0.62254695  0.48822811  1
  H  H91  1  0.50000029  0.56087917  0.48832648  1
  H  H92  1  0.50000019  0.50108076  0.48918789  1
  H  H93  1  0.49999996  0.46644579  0.18354930  1
  H  H94  1  0.49999997  0.46277025  0.43731544  1
  H  H95  1  0.50000013  0.46225993  0.06688444  1
  H  H96  1  0.50000005  0.46663893  0.31994620  1
  H  H97  1  0.50000130  0.30845474  0.01046720  1
  H  H98  1  0.50000005  0.50044601  0.01583416  1
  H  H99  1  0.49999942  0.55997487  0.01764056  1
  H  H100  1  0.49999971  0.62155977  0.01886745  1
  H  H101  1  0.50000026  0.68240393  0.02101269  1
