# generated using pymatgen
data_H2C7
_symmetry_space_group_name_H-M   'P 1'
_cell_length_a   20.00000000
_cell_length_b   40.19450000
_cell_length_c   17.41274009
_cell_angle_alpha   90.00000000
_cell_angle_beta   90.00000000
_cell_angle_gamma   90.00000000
_symmetry_Int_Tables_number   1
_chemical_formula_structural   H2C7
_chemical_formula_sum   'H24 C84'
_cell_volume   13997.92763238
_cell_formula_units_Z   12
loop_
 _symmetry_equiv_pos_site_id
 _symmetry_equiv_pos_as_xyz
  1  'x, y, z'
loop_
 _atom_site_type_symbol
 _atom_site_label
 _atom_site_symmetry_multiplicity
 _atom_site_fract_x
 _atom_site_fract_y
 _atom_site_fract_z
 _atom_site_occupancy
  C  C0  1  0.50000000  0.28623148  0.66596591  1
  C  C1  1  0.50000000  0.28592380  0.91292470  1
  C  C2  1  0.50000000  0.31649964  0.70854052  1
  C  C3  1  0.50000000  0.31331959  0.21004770  1
  C  C4  1  0.49999998  0.31602749  0.95574346  1
  C  C5  1  0.50000002  0.31526874  0.46324874  1
  C  C6  1  0.50000001  0.28593645  0.58713721  1
  C  C7  1  0.50000003  0.28623582  0.83410356  1
  C  C8  1  0.50000000  0.34718938  0.66773675  1
  C  C9  1  0.49999996  0.34302592  0.16628608  1
  C  C10  1  0.50000000  0.34698881  0.91486516  1
  C  C11  1  0.50000000  0.34406985  0.41878278  1
  C  C12  1  0.49999999  0.37830411  0.70861826  1
  C  C13  1  0.50000000  0.37331276  0.20829272  1
  C  C14  1  0.50000002  0.37713444  0.95796175  1
  C  C15  1  0.50000000  0.37546303  0.45969597  1
  C  C16  1  0.50000001  0.31605603  0.54435152  1
  C  C17  1  0.49999997  0.31524978  0.03684099  1
  C  C18  1  0.50000001  0.31650099  0.79154090  1
  C  C19  1  0.50000003  0.31332327  0.29014018  1
  C  C20  1  0.50000001  0.34700907  0.58524719  1
  C  C21  1  0.49999995  0.34404353  0.08134664  1
  C  C22  1  0.50000000  0.34718743  0.83236574  1
  C  C23  1  0.50000003  0.34304464  0.33387261  1
  C  C24  1  0.50000000  0.40873628  0.66647808  1
  C  C25  1  0.49999999  0.40410735  0.16598538  1
  C  C26  1  0.50000001  0.40870546  0.91745902  1
  C  C27  1  0.49999999  0.40563419  0.41712017  1
  C  C28  1  0.50000002  0.43948453  0.70855103  1
  C  C29  1  0.50000002  0.43358772  0.20915051  1
  C  C30  1  0.49999999  0.43903425  0.95963526  1
  C  C31  1  0.50000000  0.43705468  0.45693011  1
  C  C32  1  0.50000001  0.37715829  0.54217395  1
  C  C33  1  0.49999998  0.37543760  0.04043891  1
  C  C34  1  0.50000000  0.37832766  0.79158708  1
  C  C35  1  0.50000003  0.37331832  0.29185459  1
  C  C36  1  0.49999999  0.40871754  0.58271444  1
  C  C37  1  0.49999998  0.40561898  0.08302357  1
  C  C38  1  0.50000001  0.40874201  0.83370403  1
  C  C39  1  0.50000002  0.40412860  0.33415894  1
  C  C40  1  0.50000004  0.47013251  0.66741497  1
  C  C41  1  0.49999998  0.46388864  0.17015660  1
  C  C42  1  0.49999998  0.47050861  0.91620496  1
  C  C43  1  0.50000005  0.46517710  0.40793999  1
  C  C44  1  0.50000002  0.50097791  0.70903243  1
  C  C45  1  0.50000006  0.50208135  0.94922064  1
  C  C46  1  0.50000000  0.43905560  0.54053391  1
  C  C47  1  0.49999999  0.43703864  0.04322993  1
  C  C48  1  0.50000000  0.43948658  0.79162010  1
  C  C49  1  0.50000003  0.43360138  0.29101263  1
  C  C50  1  0.50000001  0.47053467  0.58395924  1
  C  C51  1  0.49999996  0.46515505  0.09223750  1
  C  C52  1  0.49999998  0.47012785  0.83273324  1
  C  C53  1  0.50000005  0.46390341  0.33000677  1
  C  C54  1  0.49999991  0.53236783  0.67095830  1
  C  C55  1  0.50000018  0.53266167  0.91067359  1
  C  C56  1  0.49999992  0.56338349  0.70953115  1
  C  C57  1  0.50000042  0.56261229  0.95200605  1
  C  C58  1  0.49999990  0.50212808  0.55096090  1
  C  C59  1  0.50000003  0.50097793  0.79114809  1
  C  C60  1  0.49999981  0.53270346  0.58955032  1
  C  C61  1  0.50000013  0.53234839  0.82926464  1
  C  C62  1  0.49999949  0.59402201  0.66862331  1
  C  C63  1  0.50000068  0.59368224  0.91455021  1
  C  C64  1  0.49999968  0.62468484  0.70891495  1
  C  C65  1  0.50000057  0.62408792  0.95428209  1
  C  C66  1  0.49999955  0.56267589  0.54827867  1
  C  C67  1  0.50000017  0.56337172  0.79074576  1
  C  C68  1  0.49999936  0.59373805  0.58579273  1
  C  C69  1  0.50000059  0.59399483  0.83172247  1
  C  C70  1  0.49999938  0.65540364  0.66798639  1
  C  C71  1  0.50000076  0.65478755  0.91532050  1
  C  C72  1  0.49999980  0.68652752  0.70801777  1
  C  C73  1  0.50000048  0.68535779  0.95626464  1
  C  C74  1  0.49999941  0.62416429  0.54612165  1
  C  C75  1  0.50000040  0.62467262  0.79149166  1
  C  C76  1  0.49999923  0.65485090  0.58513847  1
  C  C77  1  0.50000066  0.65537430  0.83248079  1
  C  C78  1  0.49999989  0.71590257  0.66453935  1
  C  C79  1  0.50000021  0.71526255  0.91690522  1
  C  C80  1  0.49999943  0.68544055  0.54427570  1
  C  C81  1  0.50000024  0.68651388  0.79252406  1
  C  C82  1  0.49999974  0.71532891  0.58369953  1
  C  C83  1  0.50000015  0.71587757  0.83607092  1
  H  H84  1  0.49999996  0.26246248  0.69633866  1
  H  H85  1  0.49999998  0.26223024  0.94408071  1
  H  H86  1  0.50000003  0.26224293  0.55597622  1
  H  H87  1  0.50000005  0.26246511  0.80374733  1
  H  H88  1  0.50000013  0.74011418  0.69326736  1
  H  H89  1  0.49999998  0.73879095  0.94872611  1
  H  H90  1  0.49999994  0.73886839  0.55192928  1
  H  H91  1  0.49999999  0.74009808  0.80738693  1
  H  H92  1  0.49999942  0.68482077  0.48130001  1
  H  H93  1  0.49999997  0.28915379  0.18101001  1
  H  H94  1  0.50000002  0.29072099  0.43595155  1
  H  H95  1  0.50000000  0.29069465  0.06415471  1
  H  H96  1  0.50000004  0.28916299  0.31919149  1
  H  H97  1  0.49999972  0.62409585  0.48312011  1
  H  H98  1  0.49999972  0.56200100  0.48529145  1
  H  H99  1  0.49999994  0.48759408  0.20040084  1
  H  H100  1  0.50000013  0.49030026  0.42732831  1
  H  H101  1  0.49999989  0.49028929  0.07289203  1
  H  H102  1  0.50000008  0.48761245  0.29976754  1
  H  H103  1  0.49999976  0.50644555  0.49062156  1
  H  H104  1  0.50000020  0.50637573  0.00956518  1
  H  H105  1  0.50000019  0.56191663  0.01497999  1
  H  H106  1  0.50000015  0.62399414  0.01727969  1
  H  H107  1  0.50000036  0.68471596  0.01923410  1
