# generated using pymatgen
data_H5C26
_symmetry_space_group_name_H-M   'P 1'
_cell_length_a   20.00000000
_cell_length_b   40.19450000
_cell_length_c   17.28042063
_cell_angle_alpha   90.00000000
_cell_angle_beta   90.00000000
_cell_angle_gamma   90.00000000
_symmetry_Int_Tables_number   1
_chemical_formula_structural   H5C26
_chemical_formula_sum   'H20 C104'
_cell_volume   13891.55733767
_cell_formula_units_Z   4
loop_
 _symmetry_equiv_pos_site_id
 _symmetry_equiv_pos_as_xyz
  1  'x, y, z'
loop_
 _atom_site_type_symbol
 _atom_site_label
 _atom_site_symmetry_multiplicity
 _atom_site_fract_x
 _atom_site_fract_y
 _atom_site_fract_z
 _atom_site_occupancy
  C  C0  1  0.50000001  0.28575444  0.66520131  1
  C  C1  1  0.50000000  0.28501646  0.16450569  1
  C  C2  1  0.50000000  0.28560442  0.91446164  1
  C  C3  1  0.49999999  0.28519275  0.41529950  1
  C  C4  1  0.50000000  0.31579087  0.70822363  1
  C  C5  1  0.50000000  0.31490342  0.20813981  1
  C  C6  1  0.50000000  0.31550573  0.95787679  1
  C  C7  1  0.50000000  0.31523193  0.45845705  1
  C  C8  1  0.50000000  0.28560926  0.58556484  1
  C  C9  1  0.50000000  0.28519442  0.08475112  1
  C  C10  1  0.50000000  0.28575071  0.83482438  1
  C  C11  1  0.49999999  0.28502532  0.33554549  1
  C  C12  1  0.50000000  0.34643304  0.66680897  1
  C  C13  1  0.50000000  0.34553480  0.16663078  1
  C  C14  1  0.50000000  0.34624615  0.91649745  1
  C  C15  1  0.50000000  0.34576933  0.41679928  1
  C  C16  1  0.50000000  0.37730344  0.70866931  1
  C  C17  1  0.50000000  0.37623297  0.20855985  1
  C  C18  1  0.50000000  0.37700452  0.95833264  1
  C  C19  1  0.50000000  0.37662295  0.45887056  1
  C  C20  1  0.50000000  0.31552056  0.54217955  1
  C  C21  1  0.50000000  0.31523412  0.04159090  1
  C  C22  1  0.50000000  0.31578973  0.79181428  1
  C  C23  1  0.50000000  0.31490724  0.29190509  1
  C  C24  1  0.50000000  0.34626369  0.58356161  1
  C  C25  1  0.50000000  0.34576854  0.08326772  1
  C  C26  1  0.50000000  0.34642639  0.83325171  1
  C  C27  1  0.50000000  0.34553536  0.33342760  1
  C  C28  1  0.50000000  0.40804961  0.66693029  1
  C  C29  1  0.50000000  0.40680464  0.16641578  1
  C  C30  1  0.50000000  0.40782470  0.91637121  1
  C  C31  1  0.50000000  0.40715872  0.41699687  1
  C  C32  1  0.50000000  0.43886888  0.70842105  1
  C  C33  1  0.50000000  0.43722766  0.20840697  1
  C  C34  1  0.50000000  0.43845838  0.95792246  1
  C  C35  1  0.50000000  0.43788305  0.45893064  1
  C  C36  1  0.50000000  0.37702420  0.54174774  1
  C  C37  1  0.50000000  0.37661774  0.04121769  1
  C  C38  1  0.50000000  0.37730156  0.79143710  1
  C  C39  1  0.50000000  0.37623422  0.29150811  1
  C  C40  1  0.50000000  0.40784253  0.58373612  1
  C  C41  1  0.50000000  0.40715511  0.08308869  1
  C  C42  1  0.50000000  0.40804303  0.83319823  1
  C  C43  1  0.50000000  0.40680593  0.33365459  1
  C  C44  1  0.50000000  0.46965144  0.66680940  1
  C  C45  1  0.50000000  0.46772003  0.16625004  1
  C  C46  1  0.50000000  0.46942296  0.91623877  1
  C  C47  1  0.50000000  0.46831888  0.41699288  1
  C  C48  1  0.50000000  0.50076636  0.70829513  1
  C  C49  1  0.50000000  0.49797303  0.20850889  1
  C  C50  1  0.50000001  0.50014633  0.95825341  1
  C  C51  1  0.49999999  0.49912520  0.45903840  1
  C  C52  1  0.50000000  0.43848361  0.54219667  1
  C  C53  1  0.50000000  0.43787296  0.04116598  1
  C  C54  1  0.50000000  0.43885940  0.79172026  1
  C  C55  1  0.50000000  0.43722815  0.29166986  1
  C  C56  1  0.50000000  0.46944794  0.58391154  1
  C  C57  1  0.50000000  0.46830803  0.08310229  1
  C  C58  1  0.50000000  0.46962876  0.83335555  1
  C  C59  1  0.50000000  0.46772138  0.33383308  1
  C  C60  1  0.49999999  0.53150075  0.66664048  1
  C  C61  1  0.50000000  0.52835117  0.16616654  1
  C  C62  1  0.50000001  0.53151425  0.91744721  1
  C  C63  1  0.49999999  0.52944486  0.41701352  1
  C  C64  1  0.50000000  0.56238528  0.70865782  1
  C  C65  1  0.50000000  0.55798715  0.20936116  1
  C  C66  1  0.50000002  0.56214554  0.95961242  1
  C  C67  1  0.50000001  0.56068356  0.45726069  1
  C  C68  1  0.50000000  0.50015818  0.54186090  1
  C  C69  1  0.50000001  0.49911210  0.04107052  1
  C  C70  1  0.50000000  0.50074378  0.79191113  1
  C  C71  1  0.50000000  0.49797455  0.29159987  1
  C  C72  1  0.49999999  0.53152171  0.58269071  1
  C  C73  1  0.50000001  0.52942587  0.08312404  1
  C  C74  1  0.50000001  0.53148177  0.83349032  1
  C  C75  1  0.50000000  0.52835237  0.33395713  1
  C  C76  1  0.50000000  0.59338625  0.66757870  1
  C  C77  1  0.49999998  0.58823481  0.16996988  1
  C  C78  1  0.50000002  0.59366496  0.91628674  1
  C  C79  1  0.50000008  0.58906754  0.40840898  1
  C  C80  1  0.50000001  0.62425241  0.70888122  1
  C  C81  1  0.50000005  0.62521898  0.94941042  1
  C  C82  1  0.49999998  0.56216016  0.54055794  1
  C  C83  1  0.50000000  0.56066824  0.04290165  1
  C  C84  1  0.50000000  0.56237513  0.79151052  1
  C  C85  1  0.49999999  0.55798658  0.29077949  1
  C  C86  1  0.49999996  0.59368096  0.58393563  1
  C  C87  1  0.49999997  0.58905057  0.09177421  1
  C  C88  1  0.50000001  0.59337461  0.83263998  1
  C  C89  1  0.50000003  0.58822363  0.33021124  1
  C  C90  1  0.50000002  0.65593302  0.67056960  1
  C  C91  1  0.50000001  0.65579887  0.91112610  1
  C  C92  1  0.50000002  0.68746427  0.70838672  1
  C  C93  1  0.49999999  0.68566962  0.95475395  1
  C  C94  1  0.49999989  0.62523985  0.55080382  1
  C  C95  1  0.50000001  0.62424715  0.79136904  1
  C  C96  1  0.49999998  0.65581443  0.58911812  1
  C  C97  1  0.50000000  0.65592280  0.82968577  1
  C  C98  1  0.50000002  0.71674718  0.66432551  1
  C  C99  1  0.49999998  0.71602734  0.91714141  1
  C  C100  1  0.49999999  0.68569771  0.54554127  1
  C  C101  1  0.50000001  0.68745864  0.79191067  1
  C  C102  1  0.50000002  0.71604769  0.58319341  1
  C  C103  1  0.50000000  0.71673772  0.83600297  1
  H  H104  1  0.50000001  0.26182340  0.69517549  1
  H  H105  1  0.50000000  0.26096341  0.19403351  1
  H  H106  1  0.50000000  0.26158807  0.94409672  1
  H  H107  1  0.49999999  0.26124329  0.44523960  1
  H  H108  1  0.50000001  0.26158631  0.55592964  1
  H  H109  1  0.50000000  0.26124851  0.05480283  1
  H  H110  1  0.50000000  0.26181301  0.80487475  1
  H  H111  1  0.49999999  0.26097743  0.30600891  1
  H  H112  1  0.50000001  0.74091739  0.69338477  1
  H  H113  1  0.49999996  0.73935143  0.94997023  1
  H  H114  1  0.50000003  0.73937419  0.55038343  1
  H  H115  1  0.50000001  0.74091230  0.80694778  1
  H  H116  1  0.49999998  0.68428724  0.48213624  1
  H  H117  1  0.49999995  0.61203488  0.19996947  1
  H  H118  1  0.50000022  0.61411395  0.42789338  1
  H  H119  1  0.49999990  0.61408353  0.07224615  1
  H  H120  1  0.50000007  0.61201395  0.30020282  1
  H  H121  1  0.49999970  0.62985134  0.49030071  1
  H  H122  1  0.50000014  0.62984080  0.00990964  1
  H  H123  1  0.49999998  0.68424861  0.01815534  1
