# generated using pymatgen
data_H5C12
_symmetry_space_group_name_H-M   'P 1'
_cell_length_a   10.00000000
_cell_length_b   29.89204000
_cell_length_c   9.94093632
_cell_angle_alpha   90.00000000
_cell_angle_beta   90.00000000
_cell_angle_gamma   90.00000000
_symmetry_Int_Tables_number   1
_chemical_formula_structural   H5C12
_chemical_formula_sum   'H20 C48'
_cell_volume   2971.54866056
_cell_formula_units_Z   4
loop_
 _symmetry_equiv_pos_site_id
 _symmetry_equiv_pos_as_xyz
  1  'x, y, z'
loop_
 _atom_site_type_symbol
 _atom_site_label
 _atom_site_symmetry_multiplicity
 _atom_site_fract_x
 _atom_site_fract_y
 _atom_site_fract_z
 _atom_site_occupancy
  C  C0  1  0.49999863  0.18658802  0.62543658  1
  C  C1  1  0.50000052  0.19964497  0.85633627  1
  C  C2  1  0.49999987  0.21951185  0.72395532  1
  C  C3  1  0.50000066  0.22372989  0.97184609  1
  C  C4  1  0.50000104  0.27301692  0.21947800  1
  C  C5  1  0.50000124  0.27311404  0.46756512  1
  C  C6  1  0.50000026  0.26912046  0.71843126  1
  C  C7  1  0.50000062  0.27118731  0.96961184  1
  C  C8  1  0.50000080  0.29512007  0.09467100  1
  C  C9  1  0.50000114  0.29566154  0.34388300  1
  C  C10  1  0.50000057  0.29434110  0.59386954  1
  C  C11  1  0.50000055  0.29397376  0.84234228  1
  C  C12  1  0.50000065  0.34324132  0.09248738  1
  C  C13  1  0.50000073  0.34319896  0.34402661  1
  C  C14  1  0.50000022  0.34291526  0.59506966  1
  C  C15  1  0.50000062  0.34278603  0.84264708  1
  C  C16  1  0.50000038  0.36576468  0.21853400  1
  C  C17  1  0.50000017  0.36636248  0.46883956  1
  C  C18  1  0.50000006  0.36720965  0.71982587  1
  C  C19  1  0.50000058  0.36722619  0.96749761  1
  C  C20  1  0.49999775  0.41303327  0.21869777  1
  C  C21  1  0.49999934  0.41423302  0.46606444  1
  C  C22  1  0.49999991  0.41605650  0.72029367  1
  C  C23  1  0.49999873  0.41600114  0.96874593  1
  C  C24  1  0.49999471  0.43601068  0.09582816  1
  C  C25  1  0.49999769  0.43605738  0.34255073  1
  C  C26  1  0.49999963  0.43865474  0.59285969  1
  C  C27  1  0.49999998  0.44187884  0.84208399  1
  C  C28  1  0.49999906  0.48485857  0.58853399  1
  C  C29  1  0.50000137  0.49106994  0.83291559  1
  C  C30  1  0.49999962  0.51206528  0.70238435  1
  C  C31  1  0.50000535  0.52301995  0.94087291  1
  C  C32  1  0.49999938  0.56047187  0.68279589  1
  C  C33  1  0.50000275  0.56861725  0.92343482  1
  C  C34  1  0.49999959  0.58078623  0.55301399  1
  C  C35  1  0.49999939  0.58940814  0.79548362  1
  C  C36  1  0.49999969  0.62654135  0.53703077  1
  C  C37  1  0.49999915  0.63748827  0.77963217  1
  C  C38  1  0.49999945  0.65647669  0.64823034  1
  C  C39  1  0.49999925  0.66686826  0.89208733  1
  C  C40  1  0.49999972  0.70472657  0.63095759  1
  C  C41  1  0.49999961  0.71267708  0.87598032  1
  C  C42  1  0.49999990  0.72462569  0.50161948  1
  C  C43  1  0.49999979  0.73294258  0.74728753  1
  C  C44  1  0.50000006  0.77120653  0.48621439  1
  C  C45  1  0.49999998  0.78174688  0.73172622  1
  C  C46  1  0.50000008  0.79915615  0.59740971  1
  C  C47  1  0.50000002  0.81132541  0.83915413  1
  H  H48  1  0.49999900  0.15192650  0.66168807  1
  H  H49  1  0.50000046  0.16302285  0.86153922  1
  H  H50  1  0.50000015  0.83556800  0.58453539  1
  H  H51  1  0.50000013  0.84745744  0.82036435  1
  H  H52  1  0.49999674  0.18931408  0.51658302  1
  H  H53  1  0.50000097  0.23647793  0.22383963  1
  H  H54  1  0.50000220  0.23710853  0.46147714  1
  H  H55  1  0.49998675  0.47172713  0.10780468  1
  H  H56  1  0.49999692  0.47256688  0.33633751  1
  H  H57  1  0.49999851  0.50102266  0.49086622  1
  H  H58  1  0.50000000  0.56042333  0.46166245  1
  H  H59  1  0.50000010  0.63990770  0.43464889  1
  H  H60  1  0.49999985  0.70368245  0.41148964  1
  H  H61  1  0.50000012  0.78562658  0.38478197  1
  H  H62  1  0.50000070  0.20575601  0.06737048  1
  H  H63  1  0.50001342  0.51382130  0.04577086  1
  H  H64  1  0.50000505  0.58920043  0.01435460  1
  H  H65  1  0.49999902  0.65338518  -0.00570552  1
  H  H66  1  0.49999973  0.73371066  -0.03392509  1
  H  H67  1  0.49999995  0.80058394  -0.05572710  1
