# generated using pymatgen
data_H3C14
_symmetry_space_group_name_H-M   'P 1'
_cell_length_a   10.00000000
_cell_length_b   25.62946000
_cell_length_c   9.88323308
_cell_angle_alpha   90.00000000
_cell_angle_beta   90.00000000
_cell_angle_gamma   90.00000000
_symmetry_Int_Tables_number   1
_chemical_formula_structural   H3C14
_chemical_formula_sum   'H12 C56'
_cell_volume   2533.01927022
_cell_formula_units_Z   4
loop_
 _symmetry_equiv_pos_site_id
 _symmetry_equiv_pos_as_xyz
  1  'x, y, z'
loop_
 _atom_site_type_symbol
 _atom_site_label
 _atom_site_symmetry_multiplicity
 _atom_site_fract_x
 _atom_site_fract_y
 _atom_site_fract_z
 _atom_site_occupancy
  C  C0  1  0.49999988  0.80535992  0.53049767  1
  C  C1  1  0.50000020  0.81390697  0.77349461  1
  C  C2  1  0.50000047  0.19284899  0.06934020  1
  C  C3  1  0.49999982  0.19287063  0.31942298  1
  C  C4  1  0.50000013  0.19282656  0.56933479  1
  C  C5  1  0.50000116  0.19279273  0.81928130  1
  C  C6  1  0.50000015  0.21945557  0.19433894  1
  C  C7  1  0.50000034  0.21947377  0.44434915  1
  C  C8  1  0.50000071  0.21942624  0.69428218  1
  C  C9  1  0.50000056  0.21940919  0.94424575  1
  C  C10  1  0.50000030  0.27590101  0.19413955  1
  C  C11  1  0.50000089  0.27593858  0.44419667  1
  C  C12  1  0.50000045  0.27588470  0.69419784  1
  C  C13  1  0.49999993  0.27584595  0.94406439  1
  C  C14  1  0.49999990  0.30347344  0.06897769  1
  C  C15  1  0.50000068  0.30353090  0.31914829  1
  C  C16  1  0.50000065  0.30354463  0.56928103  1
  C  C17  1  0.49999985  0.30352458  0.81903704  1
  C  C18  1  0.49999993  0.35942831  0.06869149  1
  C  C19  1  0.50000045  0.35947789  0.31904058  1
  C  C20  1  0.50000029  0.35945263  0.56927693  1
  C  C21  1  0.49999973  0.35947904  0.81875873  1
  C  C22  1  0.50000020  0.38708790  0.19367156  1
  C  C23  1  0.50000029  0.38711581  0.44425743  1
  C  C24  1  0.49999994  0.38733737  0.69404459  1
  C  C25  1  0.49999993  0.38719498  0.94363516  1
  C  C26  1  0.50000018  0.44284560  0.19329197  1
  C  C27  1  0.49999999  0.44292632  0.44453172  1
  C  C28  1  0.50000002  0.44332724  0.69399470  1
  C  C29  1  0.50000029  0.44306567  0.94313010  1
  C  C30  1  0.50000025  0.47059029  0.06769646  1
  C  C31  1  0.50000001  0.47008507  0.31917606  1
  C  C32  1  0.49999987  0.47121287  0.56938503  1
  C  C33  1  0.50000023  0.47127450  0.81845648  1
  C  C34  1  0.50000001  0.52646809  0.06707507  1
  C  C35  1  0.49999986  0.52562174  0.31911776  1
  C  C36  1  0.49999975  0.52720634  0.56963745  1
  C  C37  1  0.50000005  0.52739128  0.81830584  1
  C  C38  1  0.49999978  0.55244755  0.19363480  1
  C  C39  1  0.49999971  0.55395200  0.44314483  1
  C  C40  1  0.49999976  0.55574021  0.69452580  1
  C  C41  1  0.49999987  0.55541294  0.94274401  1
  C  C42  1  0.49999966  0.60762068  0.19380794  1
  C  C43  1  0.49999971  0.60973817  0.44096699  1
  C  C44  1  0.49999942  0.61250131  0.69518918  1
  C  C45  1  0.49999945  0.61213225  0.94376360  1
  C  C46  1  0.49999945  0.63499480  0.07135841  1
  C  C47  1  0.49999980  0.63505517  0.31669106  1
  C  C48  1  0.49999961  0.63849781  0.56720275  1
  C  C49  1  0.49999917  0.64251694  0.81779168  1
  C  C50  1  0.49999962  0.69274188  0.56313552  1
  C  C51  1  0.49999907  0.70016942  0.80979489  1
  C  C52  1  0.49999934  0.72422717  0.67674947  1
  C  C53  1  0.49999934  0.73686663  0.91788251  1
  C  C54  1  0.49999980  0.78149846  0.65595689  1
  C  C55  1  0.49999994  0.79134448  0.89967298  1
  H  H56  1  0.50000026  0.84806945  0.52434860  1
  H  H57  1  0.50000069  0.85639113  0.76059409  1
  H  H58  1  0.50000055  0.15004311  0.06945857  1
  H  H59  1  0.49999900  0.15007383  0.31950541  1
  H  H60  1  0.49999881  0.15001820  0.56949504  1
  H  H61  1  0.50000143  0.14998498  0.81946381  1
  H  H62  1  0.49999920  0.78464729  0.43382078  1
  H  H63  1  0.49999946  0.67656557  0.08402569  1
  H  H64  1  0.50000028  0.67757612  0.30938108  1
  H  H65  1  0.50000036  0.71190561  0.46510495  1
  H  H66  1  0.49999952  0.72619432  0.02346901  1
  H  H67  1  0.50000062  0.81594411  -0.00948555  1
