# generated using pymatgen
data_H2C7
_symmetry_space_group_name_H-M   'P 1'
_cell_length_a   10.00000000
_cell_length_b   29.89204000
_cell_length_c   9.89083079
_cell_angle_alpha   90.00000000
_cell_angle_beta   90.00000000
_cell_angle_gamma   90.00000000
_symmetry_Int_Tables_number   1
_chemical_formula_structural   H2C7
_chemical_formula_sum   'H16 C56'
_cell_volume   2956.57109545
_cell_formula_units_Z   8
loop_
 _symmetry_equiv_pos_site_id
 _symmetry_equiv_pos_as_xyz
  1  'x, y, z'
loop_
 _atom_site_type_symbol
 _atom_site_label
 _atom_site_symmetry_multiplicity
 _atom_site_fract_x
 _atom_site_fract_y
 _atom_site_fract_z
 _atom_site_occupancy
  C  C0  1  0.49999813  0.20252724  0.49199059  1
  C  C1  1  0.50000097  0.19592799  0.73727048  1
  C  C2  1  0.49999944  0.22305586  0.61764931  1
  C  C3  1  0.50000227  0.21485134  0.86518768  1
  C  C4  1  0.49999927  0.27179546  0.63600501  1
  C  C5  1  0.50000211  0.26136504  0.88207339  1
  C  C6  1  0.49999776  0.30167233  0.52514872  1
  C  C7  1  0.50000055  0.29047482  0.76916855  1
  C  C8  1  0.49999771  0.34754816  0.54187116  1
  C  C9  1  0.50000041  0.33870657  0.78534763  1
  C  C10  1  0.49999930  0.36769010  0.67218922  1
  C  C11  1  0.50000171  0.35944132  0.91392187  1
  C  C12  1  0.49999965  0.41612446  0.69182102  1
  C  C13  1  0.50000206  0.40507188  0.93156859  1
  C  C14  1  0.49999964  0.44335613  0.57748889  1
  C  C15  1  0.50000053  0.43701445  0.82313859  1
  C  C16  1  0.49999887  0.49245642  0.08656032  1
  C  C17  1  0.49999964  0.49261839  0.33174036  1
  C  C18  1  0.49999989  0.48954843  0.58219777  1
  C  C19  1  0.50000013  0.48611998  0.83231542  1
  C  C20  1  0.49999958  0.51606398  0.20873665  1
  C  C21  1  0.49999995  0.51434654  0.45550740  1
  C  C22  1  0.49999996  0.51193315  0.71010597  1
  C  C23  1  0.49999984  0.51205838  0.95909984  1
  C  C24  1  0.50000010  0.56334977  0.20851908  1
  C  C25  1  0.50000008  0.56212460  0.45797120  1
  C  C26  1  0.49999998  0.56057638  0.70944987  1
  C  C27  1  0.50000016  0.56070627  0.95791009  1
  C  C28  1  0.50000010  0.58558235  0.08183091  1
  C  C29  1  0.50000017  0.58634605  0.33407351  1
  C  C30  1  0.50000002  0.58497526  0.58473747  1
  C  C31  1  0.50000011  0.58476009  0.83334430  1
  C  C32  1  0.50000007  0.63353188  0.08252759  1
  C  C33  1  0.50000011  0.63397462  0.33396859  1
  C  C34  1  0.50000005  0.63293658  0.58443034  1
  C  C35  1  0.50000008  0.63288779  0.83345516  1
  C  C36  1  0.50000005  0.65728796  0.20806150  1
  C  C37  1  0.50000006  0.65713066  0.45932222  1
  C  C38  1  0.50000005  0.65682288  0.70899536  1
  C  C39  1  0.50000007  0.65707955  0.95800155  1
  C  C40  1  0.50000002  0.70516243  0.20829925  1
  C  C41  1  0.50000001  0.70505890  0.45897738  1
  C  C42  1  0.50000002  0.70495100  0.70875769  1
  C  C43  1  0.50000003  0.70507575  0.95828090  1
  C  C44  1  0.50000002  0.72877416  0.08318649  1
  C  C45  1  0.50000000  0.72868312  0.33375669  1
  C  C46  1  0.49999999  0.72871223  0.58395021  1
  C  C47  1  0.50000001  0.72875341  0.83335718  1
  C  C48  1  0.50000001  0.77718015  0.08331329  1
  C  C49  1  0.49999999  0.77709270  0.33360204  1
  C  C50  1  0.49999997  0.77709929  0.58370022  1
  C  C51  1  0.49999999  0.77716164  0.83339609  1
  C  C52  1  0.50000000  0.79989615  0.20847546  1
  C  C53  1  0.49999998  0.79985711  0.45855530  1
  C  C54  1  0.49999998  0.79994670  0.70850550  1
  C  C55  1  0.50000000  0.79998072  0.95838838  1
  H  H56  1  0.49999814  0.16593769  0.48481507  1
  H  H57  1  0.50000100  0.15945099  0.72533970  1
  H  H58  1  0.50000000  0.83660236  0.20825086  1
  H  H59  1  0.50000002  0.83655146  0.45832483  1
  H  H60  1  0.50000000  0.83663655  0.70837317  1
  H  H61  1  0.49999998  0.83668209  0.95808367  1
  H  H62  1  0.49999707  0.22116840  0.39689008  1
  H  H63  1  0.49999646  0.28843777  0.42194143  1
  H  H64  1  0.49999626  0.36808715  0.45057220  1
  H  H65  1  0.49999982  0.42724224  0.47929571  1
  H  H66  1  0.49999704  0.45680556  0.10030655  1
  H  H67  1  0.49999950  0.45614233  0.32477679  1
  H  H68  1  0.50000349  0.19334853  -0.04502842  1
  H  H69  1  0.50000348  0.27490149  -0.01530810  1
  H  H70  1  0.50000275  0.33881812  0.00522254  1
  H  H71  1  0.50000434  0.41434901  0.03693867  1
