# generated using pymatgen
data_H5C12
_symmetry_space_group_name_H-M   'P 1'
_cell_length_a   10.00000000
_cell_length_b   29.89204000
_cell_length_c   9.90075484
_cell_angle_alpha   90.00000000
_cell_angle_beta   90.00000000
_cell_angle_gamma   90.00000000
_symmetry_Int_Tables_number   1
_chemical_formula_structural   H5C12
_chemical_formula_sum   'H20 C48'
_cell_volume   2959.53759808
_cell_formula_units_Z   4
loop_
 _symmetry_equiv_pos_site_id
 _symmetry_equiv_pos_as_xyz
  1  'x, y, z'
loop_
 _atom_site_type_symbol
 _atom_site_label
 _atom_site_symmetry_multiplicity
 _atom_site_fract_x
 _atom_site_fract_y
 _atom_site_fract_z
 _atom_site_occupancy
  C  C0  1  0.49999724  0.19838630  0.01389078  1
  C  C1  1  0.49999605  0.19814678  0.26609493  1
  C  C2  1  0.49999608  0.19876194  0.51653643  1
  C  C3  1  0.49999778  0.19928865  0.76477173  1
  C  C4  1  0.49999507  0.22040757  0.13985070  1
  C  C5  1  0.49999517  0.22108527  0.39141415  1
  C  C6  1  0.49999524  0.22223965  0.64050166  1
  C  C7  1  0.49999716  0.22195491  0.88946696  1
  C  C8  1  0.49999527  0.26866352  0.13970256  1
  C  C9  1  0.49999520  0.26959489  0.39203124  1
  C  C10  1  0.49999379  0.27079513  0.64059720  1
  C  C11  1  0.49999744  0.27044011  0.88902987  1
  C  C12  1  0.49999842  0.29293192  0.01597308  1
  C  C13  1  0.49999813  0.29163810  0.26521222  1
  C  C14  1  0.49999454  0.29447981  0.51574172  1
  C  C15  1  0.49999776  0.29473734  0.76437585  1
  C  C16  1  0.50000474  0.34088094  0.01816980  1
  C  C17  1  0.50001953  0.33908939  0.26490711  1
  C  C18  1  0.50000931  0.34327560  0.51444848  1
  C  C19  1  0.49999878  0.34347488  0.76345243  1
  C  C20  1  0.50001968  0.36251955  0.14191823  1
  C  C21  1  0.50004322  0.36276243  0.38698700  1
  C  C22  1  0.49999867  0.36924009  0.64125907  1
  C  C23  1  0.50000159  0.36574241  0.89147128  1
  C  C24  1  0.49998792  0.41841768  0.65080594  1
  C  C25  1  0.50000682  0.41197901  0.89642458  1
  C  C26  1  0.49995556  0.45040106  0.54252778  1
  C  C27  1  0.50000232  0.43926544  0.78216343  1
  C  C28  1  0.49997540  0.49605744  0.56007340  1
  C  C29  1  0.50000482  0.48773961  0.80168450  1
  C  C30  1  0.50000355  0.51684437  0.68880752  1
  C  C31  1  0.50000421  0.50799501  0.93212570  1
  C  C32  1  0.50000620  0.56496944  0.70566683  1
  C  C33  1  0.50000322  0.55371403  0.94902626  1
  C  C34  1  0.50000545  0.59464245  0.59324941  1
  C  C35  1  0.50000453  0.58384570  0.83766964  1
  C  C36  1  0.50000277  0.64030167  0.60971968  1
  C  C37  1  0.50000240  0.63199277  0.85506833  1
  C  C38  1  0.50000155  0.66058869  0.73979235  1
  C  C39  1  0.50000102  0.65229456  0.98504621  1
  C  C40  1  0.50000024  0.70893645  0.75597497  1
  C  C41  1  0.49999989  0.69815758  1.00060702  1
  C  C42  1  0.50000002  0.73814623  0.64318551  1
  C  C43  1  0.49999983  0.72769949  0.88889571  1
  C  C44  1  0.49999968  0.78466990  0.65989376  1
  C  C45  1  0.49999965  0.77645558  0.90707315  1
  C  C46  1  0.49999954  0.80356618  0.78765412  1
  C  C47  1  0.49999986  0.79719806  1.03235117  1
  H  H48  1  0.49999937  0.16167798  0.01119281  1
  H  H49  1  0.49999818  0.16142663  0.26723773  1
  H  H50  1  0.49999819  0.16206689  0.51888940  1
  H  H51  1  0.50000019  0.16258910  0.76448400  1
  H  H52  1  0.49999950  0.84002089  0.79963730  1
  H  H53  1  0.49999983  0.83381415  1.03839158  1
  H  H54  1  0.50002674  0.39898460  0.14891137  1
  H  H55  1  0.50010507  0.39844639  0.37364095  1
  H  H56  1  0.49989154  0.44092171  0.43736216  1
  H  H57  1  0.49995572  0.51663481  0.46872552  1
  H  H58  1  0.50000733  0.58113918  0.49066797  1
  H  H59  1  0.50000162  0.66122833  0.51917843  1
  H  H60  1  0.50000034  0.72474399  0.54052640  1
  H  H61  1  0.49999972  0.80629048  0.57042568  1
  H  H62  1  0.50001188  0.42806492  -0.00535691  1
  H  H63  1  0.50000164  0.48754855  0.02363793  1
  H  H64  1  0.50000026  0.56677163  0.05220104  1
  H  H65  1  0.50000110  0.63148070  0.07585420  1
  H  H66  1  0.49999932  0.71184079  0.10311599  1
  H  H67  1  0.50000013  0.77890520  0.12798499  1
