# generated using pymatgen
data_H7C30
_symmetry_space_group_name_H-M   'P 1'
_cell_length_a   10.00000000
_cell_length_b   29.89204000
_cell_length_c   9.89098785
_cell_angle_alpha   90.00000000
_cell_angle_beta   90.00000000
_cell_angle_gamma   90.00000000
_symmetry_Int_Tables_number   1
_chemical_formula_structural   H7C30
_chemical_formula_sum   'H14 C60'
_cell_volume   2956.61804341
_cell_formula_units_Z   2
loop_
 _symmetry_equiv_pos_site_id
 _symmetry_equiv_pos_as_xyz
  1  'x, y, z'
loop_
 _atom_site_type_symbol
 _atom_site_label
 _atom_site_symmetry_multiplicity
 _atom_site_fract_x
 _atom_site_fract_y
 _atom_site_fract_z
 _atom_site_occupancy
  C  C0  1  0.50000000  0.20044772  0.07440724  1
  C  C1  1  0.50000001  0.20048114  0.32439796  1
  C  C2  1  0.50000000  0.20045810  0.57434266  1
  C  C3  1  0.50000000  0.20040990  0.82435612  1
  C  C4  1  0.50000000  0.22327222  0.19940963  1
  C  C5  1  0.50000001  0.22327610  0.44938103  1
  C  C6  1  0.50000000  0.22321570  0.69940859  1
  C  C7  1  0.50000000  0.22321287  0.94941772  1
  C  C8  1  0.50000000  0.27166772  0.19950894  1
  C  C9  1  0.50000001  0.27167318  0.44955610  1
  C  C10  1  0.50000000  0.27161790  0.69957233  1
  C  C11  1  0.50000000  0.27161325  0.94950209  1
  C  C12  1  0.50000001  0.29530571  0.07443375  1
  C  C13  1  0.50000001  0.29534798  0.32464580  1
  C  C14  1  0.50000001  0.29533455  0.57472453  1
  C  C15  1  0.50000001  0.29530476  0.82448550  1
  C  C16  1  0.50000002  0.34325862  0.07442181  1
  C  C17  1  0.50000003  0.34330764  0.32484362  1
  C  C18  1  0.50000001  0.34327982  0.57504746  1
  C  C19  1  0.50000001  0.34327356  0.82452178  1
  C  C20  1  0.50000004  0.36695996  0.19950689  1
  C  C21  1  0.50000003  0.36700095  0.45009314  1
  C  C22  1  0.50000001  0.36716928  0.69990454  1
  C  C23  1  0.50000002  0.36702308  0.94949909  1
  C  C24  1  0.50000006  0.41474017  0.19938711  1
  C  C25  1  0.50000005  0.41483536  0.45058741  1
  C  C26  1  0.50000003  0.41517913  0.70021830  1
  C  C27  1  0.50000005  0.41491571  0.94930279  1
  C  C28  1  0.50000006  0.43851072  0.07389884  1
  C  C29  1  0.50000007  0.43807311  0.32532165  1
  C  C30  1  0.50000004  0.43907161  0.57562895  1
  C  C31  1  0.50000005  0.43912404  0.82476420  1
  C  C32  1  0.50000004  0.48642246  0.07342762  1
  C  C33  1  0.50000008  0.48566812  0.32562324  1
  C  C34  1  0.50000002  0.48702150  0.57610710  1
  C  C35  1  0.50000004  0.48722166  0.82481817  1
  C  C36  1  0.50000003  0.50867908  0.20015344  1
  C  C37  1  0.50000005  0.50992545  0.44954403  1
  C  C38  1  0.49999996  0.51143818  0.70098276  1
  C  C39  1  0.50000002  0.51127878  0.94941722  1
  C  C40  1  0.49999973  0.55596384  0.20054183  1
  C  C41  1  0.50000002  0.55771410  0.44741196  1
  C  C42  1  0.49999995  0.56004570  0.70193055  1
  C  C43  1  0.49999979  0.55988486  0.95076604  1
  C  C44  1  0.49999931  0.57949883  0.07829049  1
  C  C45  1  0.49999980  0.57945182  0.32352822  1
  C  C46  1  0.50000002  0.58247360  0.57415579  1
  C  C47  1  0.49999997  0.58584374  0.82422606  1
  C  C48  1  0.50000002  0.62871094  0.56969299  1
  C  C49  1  0.50000022  0.63500018  0.81539998  1
  C  C50  1  0.49999994  0.65591931  0.68389462  1
  C  C51  1  0.50000095  0.66677069  0.92396248  1
  C  C52  1  0.49999977  0.70458495  0.66426078  1
  C  C53  1  0.50000102  0.71259873  0.90643191  1
  C  C54  1  0.49999888  0.72438084  0.53425669  1
  C  C55  1  0.50000042  0.73343160  0.77896977  1
  C  C56  1  0.49999880  0.77100911  0.51785167  1
  C  C57  1  0.50000037  0.78221051  0.76348950  1
  C  C58  1  0.49999957  0.79938516  0.62823586  1
  C  C59  1  0.50000098  0.81198559  0.87083453  1
  H  H60  1  0.50000001  0.16374984  0.07429443  1
  H  H61  1  0.50000001  0.16377857  0.32433834  1
  H  H62  1  0.50000000  0.16375614  0.57427495  1
  H  H63  1  0.50000000  0.16370624  0.82425935  1
  H  H64  1  0.49999951  0.83575286  0.61409906  1
  H  H65  1  0.50000066  0.84804361  0.85062048  1
  H  H66  1  0.49999838  0.61514221  0.09158688  1
  H  H67  1  0.49999970  0.61593247  0.31635495  1
  H  H68  1  0.50000030  0.64478811  0.47141781  1
  H  H69  1  0.49999820  0.70403365  0.44255662  1
  H  H70  1  0.49999813  0.78498127  0.41538309  1
  H  H71  1  0.50000173  0.65742550  0.02931686  1
  H  H72  1  0.50000139  0.73321079  -0.00205245  1
  H  H73  1  0.50000157  0.80162786  -0.02315322  1
