# generated using pymatgen
data_H7C34
_symmetry_space_group_name_H-M   'P 1'
_cell_length_a   10.00000000
_cell_length_b   29.89204000
_cell_length_c   9.88730625
_cell_angle_alpha   90.00000000
_cell_angle_beta   90.00000000
_cell_angle_gamma   90.00000000
_symmetry_Int_Tables_number   1
_chemical_formula_structural   H7C34
_chemical_formula_sum   'H14 C68'
_cell_volume   2955.51754033
_cell_formula_units_Z   2
loop_
 _symmetry_equiv_pos_site_id
 _symmetry_equiv_pos_as_xyz
  1  'x, y, z'
loop_
 _atom_site_type_symbol
 _atom_site_label
 _atom_site_symmetry_multiplicity
 _atom_site_fract_x
 _atom_site_fract_y
 _atom_site_fract_z
 _atom_site_occupancy
  C  C0  1  0.49999892  0.84806992  0.63036739  1
  C  C1  1  0.50000049  0.83536818  0.87276407  1
  C  C2  1  0.49999999  0.16484413  0.05191427  1
  C  C3  1  0.49999998  0.16486073  0.30190146  1
  C  C4  1  0.49999999  0.16482338  0.55182249  1
  C  C5  1  0.49999999  0.16481398  0.80186238  1
  C  C6  1  0.49999999  0.18765165  0.17688584  1
  C  C7  1  0.49999998  0.18764790  0.42687672  1
  C  C8  1  0.49999999  0.18760724  0.67684497  1
  C  C9  1  0.49999999  0.18762644  0.92685143  1
  C  C10  1  0.49999999  0.23603637  0.17680336  1
  C  C11  1  0.49999999  0.23602041  0.42673910  1
  C  C12  1  0.50000000  0.23599973  0.67680060  1
  C  C13  1  0.49999999  0.23602226  0.92681025  1
  C  C14  1  0.49999999  0.25972796  0.05182044  1
  C  C15  1  0.50000000  0.25973427  0.30175519  1
  C  C16  1  0.50000000  0.25966786  0.55171282  1
  C  C17  1  0.50000000  0.25970375  0.80175829  1
  C  C18  1  0.50000000  0.30766631  0.05164526  1
  C  C19  1  0.50000000  0.30765785  0.30164540  1
  C  C20  1  0.50000000  0.30758673  0.55164836  1
  C  C21  1  0.50000000  0.30763513  0.80159327  1
  C  C22  1  0.49999999  0.33142711  0.17654668  1
  C  C23  1  0.49999999  0.33136128  0.42673282  1
  C  C24  1  0.50000000  0.33137517  0.67663637  1
  C  C25  1  0.50000000  0.33142186  0.92648578  1
  C  C26  1  0.49999997  0.37926861  0.17639218  1
  C  C27  1  0.49999997  0.37920067  0.42680247  1
  C  C28  1  0.49999999  0.37921798  0.67662580  1
  C  C29  1  0.49999999  0.37924118  0.92619494  1
  C  C30  1  0.49999997  0.40298554  0.05113209  1
  C  C31  1  0.49999995  0.40292810  0.30173083  1
  C  C32  1  0.49999997  0.40301306  0.55174655  1
  C  C33  1  0.49999999  0.40312589  0.80127849  1
  C  C34  1  0.49999993  0.45076041  0.05059037  1
  C  C35  1  0.49999992  0.45066562  0.30183950  1
  C  C36  1  0.49999995  0.45085029  0.55198847  1
  C  C37  1  0.49999997  0.45107290  0.80101404  1
  C  C38  1  0.49999990  0.47400497  0.17585553  1
  C  C39  1  0.49999992  0.47444132  0.42732810  1
  C  C40  1  0.49999995  0.47505824  0.67651645  1
  C  C41  1  0.49999995  0.47500458  0.92556338  1
  C  C42  1  0.49999987  0.52157698  0.17552572  1
  C  C43  1  0.49999993  0.52230518  0.42775549  1
  C  C44  1  0.49999998  0.52313847  0.67642063  1
  C  C45  1  0.49999997  0.52294636  0.92510167  1
  C  C46  1  0.49999990  0.54588294  0.05162276  1
  C  C47  1  0.49999991  0.54458436  0.30104925  1
  C  C48  1  0.49999997  0.54717126  0.55181042  1
  C  C49  1  0.50000004  0.54739765  0.80018908  1
  C  C50  1  0.49999992  0.59368619  0.05373167  1
  C  C51  1  0.50000013  0.59186842  0.30070949  1
  C  C52  1  0.50000013  0.59575519  0.55045564  1
  C  C53  1  0.50000006  0.59599815  0.79915893  1
  C  C54  1  0.50000006  0.61540113  0.17778647  1
  C  C55  1  0.50000049  0.61541169  0.42299840  1
  C  C56  1  0.50000002  0.62178893  0.67680328  1
  C  C57  1  0.49999998  0.61845130  0.92688927  1
  C  C58  1  0.49999983  0.67096988  0.68544897  1
  C  C59  1  0.50000002  0.66469270  0.93132198  1
  C  C60  1  0.49999905  0.70277875  0.57683566  1
  C  C61  1  0.50000017  0.69191410  0.81704716  1
  C  C62  1  0.49999887  0.74859218  0.59458550  1
  C  C63  1  0.50000039  0.74058038  0.83681210  1
  C  C64  1  0.49999956  0.76942763  0.72206584  1
  C  C65  1  0.50000152  0.76036886  0.96683632  1
  C  C66  1  0.49999959  0.81819580  0.73749236  1
  C  C67  1  0.50000151  0.80699023  0.98314135  1
  H  H68  1  0.49999922  0.88409579  0.65107158  1
  H  H69  1  0.50000055  0.87171466  0.88705451  1
  H  H70  1  0.49999999  0.12815198  0.05187948  1
  H  H71  1  0.49999998  0.12817336  0.30180903  1
  H  H72  1  0.49999998  0.12811995  0.55176935  1
  H  H73  1  0.49999999  0.12811568  0.80180417  1
  H  H74  1  0.49999824  0.83802395  0.52407200  1
  H  H75  1  0.50000012  0.65188687  0.18479239  1
  H  H76  1  0.50000122  0.65105773  0.40999007  1
  H  H77  1  0.49999832  0.69358231  0.47125364  1
  H  H78  1  0.49999836  0.76923970  0.50313568  1
  H  H79  1  0.49999968  0.68069782  0.02975916  1
  H  H80  1  0.50000256  0.74003610  0.05857664  1
  H  H81  1  0.50000240  0.82094364  0.08561268  1
