# generated using pymatgen
data_HC2
_symmetry_space_group_name_H-M   'P 1'
_cell_length_a   10.00000000
_cell_length_b   29.89204000
_cell_length_c   9.91821506
_cell_angle_alpha   90.00000000
_cell_angle_beta   90.00000000
_cell_angle_gamma   90.00000000
_symmetry_Int_Tables_number   1
_chemical_formula_structural   HC2
_chemical_formula_sum   'H22 C44'
_cell_volume   2964.75681154
_cell_formula_units_Z   22
loop_
 _symmetry_equiv_pos_site_id
 _symmetry_equiv_pos_as_xyz
  1  'x, y, z'
loop_
 _atom_site_type_symbol
 _atom_site_label
 _atom_site_symmetry_multiplicity
 _atom_site_fract_x
 _atom_site_fract_y
 _atom_site_fract_z
 _atom_site_occupancy
  C  C0  1  0.49999931  0.18945331  0.67559683  1
  C  C1  1  0.50000005  0.20164894  0.91760596  1
  C  C2  1  0.49999972  0.21913898  0.78297099  1
  C  C3  1  0.50000019  0.22964610  1.02887235  1
  C  C4  1  0.49999976  0.26799047  0.76730020  1
  C  C5  1  0.49999998  0.27620390  1.01341131  1
  C  C6  1  0.49999981  0.28852746  0.63867136  1
  C  C7  1  0.49999977  0.29620782  0.88394879  1
  C  C8  1  0.50000000  0.33439952  0.62319121  1
  C  C9  1  0.49999989  0.34455181  0.86743820  1
  C  C10  1  0.50000036  0.36382184  0.73605235  1
  C  C11  1  0.49999978  0.37400357  0.98018515  1
  C  C12  1  0.50000220  0.41205492  0.72052462  1
  C  C13  1  0.50000101  0.41973376  0.96541479  1
  C  C14  1  0.50000454  0.43263526  0.59104484  1
  C  C15  1  0.50000310  0.44037816  0.83608046  1
  C  C16  1  0.50000823  0.47831563  0.57578897  1
  C  C17  1  0.50000623  0.48853309  0.82002908  1
  C  C18  1  0.50000871  0.50770838  0.68866669  1
  C  C19  1  0.50000470  0.51840454  0.93197306  1
  C  C20  1  0.50000473  0.55574382  0.67223873  1
  C  C21  1  0.50000665  0.56414032  0.91541078  1
  C  C22  1  0.49996238  0.57656873  0.54372054  1
  C  C23  1  0.50000749  0.58459357  0.78549695  1
  C  C24  1  0.49993378  0.62224244  0.52696423  1
  C  C25  1  0.50000459  0.63315863  0.76698554  1
  C  C26  1  0.49998314  0.65388675  0.63552607  1
  C  C27  1  0.50001142  0.66038766  0.88131362  1
  C  C28  1  0.50003029  0.71115874  0.12596945  1
  C  C29  1  0.50006352  0.71027372  0.36949857  1
  C  C30  1  0.49999970  0.70294626  0.62519939  1
  C  C31  1  0.50000436  0.70676540  0.87599313  1
  C  C32  1  0.50000867  0.73226102  0.00174797  1
  C  C33  1  0.50003035  0.73473461  0.24861841  1
  C  C34  1  0.50001444  0.72875887  0.49805182  1
  C  C35  1  0.50000060  0.72835059  0.74751069  1
  C  C36  1  0.49999844  0.78076654  -0.00066952  1
  C  C37  1  0.49999802  0.78285971  0.24939783  1
  C  C38  1  0.49999122  0.77781110  0.49989364  1
  C  C39  1  0.49999782  0.77719523  0.74793138  1
  C  C40  1  0.49999131  0.80483268  0.12262823  1
  C  C41  1  0.49999033  0.80294861  0.37836660  1
  C  C42  1  0.49998874  0.80018515  0.62474373  1
  C  C43  1  0.49999647  0.80133758  0.87084665  1
  H  H44  1  0.49999929  0.15339078  0.69546699  1
  H  H45  1  0.50000009  0.16522715  0.93096215  1
  H  H46  1  0.49998266  0.84155836  0.11918908  1
  H  H47  1  0.49998531  0.83955862  0.38670263  1
  H  H48  1  0.49998430  0.83688771  0.62576233  1
  H  H49  1  0.49999297  0.83799688  0.86476168  1
  H  H50  1  0.49999892  0.19983759  0.56989178  1
  H  H51  1  0.49999992  0.26762792  0.54801354  1
  H  H52  1  0.50000006  0.34801191  0.52088027  1
  H  H53  1  0.50000377  0.41196162  0.50019089  1
  H  H54  1  0.50001159  0.49209726  0.47376068  1
  H  H55  1  0.49993200  0.55612768  0.45225673  1
  H  H56  1  0.49983910  0.63224449  0.42236557  1
  H  H57  1  0.50004048  0.67467508  0.13404422  1
  H  H58  1  0.50015122  0.67461569  0.35366332  1
  H  H59  1  0.50000042  0.21530603  0.13055528  1
  H  H60  1  0.50000017  0.29711069  0.10374766  1
  H  H61  1  0.49999896  0.36027670  0.08232617  1
  H  H62  1  0.50000079  0.44042521  0.05631194  1
  H  H63  1  0.50000075  0.50522526  0.03492094  1
  H  H64  1  0.50000359  0.58464897  0.00662832  1
  H  H65  1  0.50001785  0.64431151  -0.02055380  1
