# generated using pymatgen
data_H11C26
_symmetry_space_group_name_H-M   'P 1'
_cell_length_a   10.00000000
_cell_length_b   29.89204000
_cell_length_c   9.95509323
_cell_angle_alpha   90.00000000
_cell_angle_beta   90.00000000
_cell_angle_gamma   90.00000000
_symmetry_Int_Tables_number   1
_chemical_formula_structural   H11C26
_chemical_formula_sum   'H22 C52'
_cell_volume   2975.78045130
_cell_formula_units_Z   2
loop_
 _symmetry_equiv_pos_site_id
 _symmetry_equiv_pos_as_xyz
  1  'x, y, z'
loop_
 _atom_site_type_symbol
 _atom_site_label
 _atom_site_symmetry_multiplicity
 _atom_site_fract_x
 _atom_site_fract_y
 _atom_site_fract_z
 _atom_site_occupancy
  C  C0  1  0.49999985  0.83415971  0.48358091  1
  C  C1  1  0.50000044  0.84100663  0.72764813  1
  C  C2  1  0.50000125  0.15116748  0.64775730  1
  C  C3  1  0.50000135  0.16316523  0.88942410  1
  C  C4  1  0.50000146  0.18055344  0.75534725  1
  C  C5  1  0.50000135  0.19145701  0.99930071  1
  C  C6  1  0.50000076  0.22932337  0.74062924  1
  C  C7  1  0.50000176  0.23815958  0.98355201  1
  C  C8  1  0.49999266  0.25012240  0.61419900  1
  C  C9  1  0.50000169  0.25814476  0.85461369  1
  C  C10  1  0.49998717  0.29595028  0.59676012  1
  C  C11  1  0.50000123  0.30682122  0.83486466  1
  C  C12  1  0.49999665  0.32780617  0.70428017  1
  C  C13  1  0.50000246  0.33397869  0.94841894  1
  C  C14  1  0.50000358  0.38270626  0.19495654  1
  C  C15  1  0.50001012  0.38289445  0.44209637  1
  C  C16  1  0.49999923  0.37711814  0.69534431  1
  C  C17  1  0.50000001  0.38020835  0.94452455  1
  C  C18  1  0.49999976  0.40454272  0.07137130  1
  C  C19  1  0.50000232  0.40559519  0.31933185  1
  C  C20  1  0.50000168  0.40307058  0.56928129  1
  C  C21  1  0.49999873  0.40289952  0.81728738  1
  C  C22  1  0.49999716  0.45245596  0.06869056  1
  C  C23  1  0.49999591  0.45281365  0.31995594  1
  C  C24  1  0.49999817  0.45169974  0.57105130  1
  C  C25  1  0.49999786  0.45170106  0.81807178  1
  C  C26  1  0.49999578  0.47520569  0.19447505  1
  C  C27  1  0.49999762  0.47551153  0.44580284  1
  C  C28  1  0.49999842  0.47617186  0.69605814  1
  C  C29  1  0.49999738  0.47613391  0.94331478  1
  C  C30  1  0.50000462  0.52239782  0.19478620  1
  C  C31  1  0.50000002  0.52346603  0.44272275  1
  C  C32  1  0.49999883  0.52497965  0.69675306  1
  C  C33  1  0.50000312  0.52474135  0.94484012  1
  C  C34  1  0.50001669  0.54496999  0.07184088  1
  C  C35  1  0.50000529  0.54525830  0.31918713  1
  C  C36  1  0.49999968  0.54780450  0.56966478  1
  C  C37  1  0.49999915  0.55065456  0.81877183  1
  C  C38  1  0.50000227  0.59398065  0.56606149  1
  C  C39  1  0.49999493  0.59983986  0.81022464  1
  C  C40  1  0.50000117  0.62095850  0.68020183  1
  C  C41  1  0.49998167  0.63165934  0.91816289  1
  C  C42  1  0.50000242  0.66945237  0.66160977  1
  C  C43  1  0.49999206  0.67730919  0.90163229  1
  C  C44  1  0.50000155  0.68979895  0.53240117  1
  C  C45  1  0.50000298  0.69833372  0.77453121  1
  C  C46  1  0.50000114  0.73567398  0.51687449  1
  C  C47  1  0.50000325  0.74656201  0.75943993  1
  C  C48  1  0.50000188  0.76530551  0.62737290  1
  C  C49  1  0.50000249  0.77562623  0.87174407  1
  C  C50  1  0.50000069  0.81394344  0.60885998  1
  C  C51  1  0.50000112  0.82214605  0.85478664  1
  H  H52  1  0.49999944  0.87069443  0.47516317  1
  H  H53  1  0.49999960  0.87745135  0.71586299  1
  H  H54  1  0.50000098  0.11501633  0.66594678  1
  H  H55  1  0.50000106  0.12676354  0.90299739  1
  H  H56  1  0.49999963  0.81526749  0.38952096  1
  H  H57  1  0.50000135  0.16199831  0.54290560  1
  H  H58  1  0.49998715  0.22942006  0.52349878  1
  H  H59  1  0.49996857  0.30503201  0.49201155  1
  H  H60  1  0.50000669  0.34617015  0.20079483  1
  H  H61  1  0.50002836  0.34718683  0.43121692  1
  H  H62  1  0.50004676  0.58066000  0.08236642  1
  H  H63  1  0.50000840  0.58179121  0.31374670  1
  H  H64  1  0.50000374  0.61036679  0.46878052  1
  H  H65  1  0.50000024  0.66954414  0.44110569  1
  H  H66  1  0.49999975  0.74938411  0.41496808  1
  H  H67  1  0.50000098  0.17723338  0.10083311  1
  H  H68  1  0.50000156  0.25847297  0.07475617  1
  H  H69  1  0.50000409  0.31772156  0.04586559  1
  H  H70  1  0.49995203  0.62245896  0.02277604  1
  H  H71  1  0.49998549  0.69750452  -0.00682750  1
  H  H72  1  0.50000279  0.76210135  -0.02630268  1
  H  H73  1  0.50000053  0.84385602  -0.05644737  1
