# generated using pymatgen
data_H11C26
_symmetry_space_group_name_H-M   'P 1'
_cell_length_a   10.00000000
_cell_length_b   29.89204000
_cell_length_c   9.95280352
_cell_angle_alpha   90.00000000
_cell_angle_beta   90.00000000
_cell_angle_gamma   90.00000000
_symmetry_Int_Tables_number   1
_chemical_formula_structural   H11C26
_chemical_formula_sum   'H22 C52'
_cell_volume   2975.09600954
_cell_formula_units_Z   2
loop_
 _symmetry_equiv_pos_site_id
 _symmetry_equiv_pos_as_xyz
  1  'x, y, z'
loop_
 _atom_site_type_symbol
 _atom_site_label
 _atom_site_symmetry_multiplicity
 _atom_site_fract_x
 _atom_site_fract_y
 _atom_site_fract_z
 _atom_site_occupancy
  C  C0  1  0.49999998  0.84747141  0.66872844  1
  C  C1  1  0.50000028  0.83529941  0.91025028  1
  C  C2  1  0.50000155  0.16437499  0.50134438  1
  C  C3  1  0.50000280  0.15724290  0.74222746  1
  C  C4  1  0.50000230  0.18500962  0.62547315  1
  C  C5  1  0.49999393  0.17669150  0.86715835  1
  C  C6  1  0.50000193  0.23410824  0.64579375  1
  C  C7  1  0.49998586  0.22342492  0.88477567  1
  C  C8  1  0.50000328  0.26100222  0.53295819  1
  C  C9  1  0.49999657  0.25482602  0.77764950  1
  C  C10  1  0.50001282  0.31000172  0.03928352  1
  C  C11  1  0.50000652  0.30988456  0.28655626  1
  C  C12  1  0.50000193  0.30749136  0.53656808  1
  C  C13  1  0.49999998  0.30435618  0.78593778  1
  C  C14  1  0.50000634  0.33268271  0.16227782  1
  C  C15  1  0.50000287  0.33179023  0.41045146  1
  C  C16  1  0.50000097  0.33010687  0.66380130  1
  C  C17  1  0.50000324  0.33013811  0.91176246  1
  C  C18  1  0.50000047  0.37993078  0.16177087  1
  C  C19  1  0.50000111  0.37975022  0.41305547  1
  C  C20  1  0.50000104  0.37892931  0.66312725  1
  C  C21  1  0.49999911  0.37882217  0.91030731  1
  C  C22  1  0.49999905  0.40258806  0.03603174  1
  C  C23  1  0.49999960  0.40241107  0.28720765  1
  C  C24  1  0.50000088  0.40346736  0.53820518  1
  C  C25  1  0.49999874  0.40333346  0.78539616  1
  C  C26  1  0.49999764  0.45049025  0.03891472  1
  C  C27  1  0.49999376  0.44962145  0.28672833  1
  C  C28  1  0.49999639  0.45215810  0.53663553  1
  C  C29  1  0.49999877  0.45218661  0.78477630  1
  C  C30  1  0.49999417  0.47240167  0.16228355  1
  C  C31  1  0.49998687  0.47236514  0.40963988  1
  C  C32  1  0.49999943  0.47804500  0.66297622  1
  C  C33  1  0.49999855  0.47483321  0.91208836  1
  C  C34  1  0.50000305  0.52727863  0.67221431  1
  C  C35  1  0.49999783  0.52099872  0.91626582  1
  C  C36  1  0.50001242  0.55937008  0.56471722  1
  C  C37  1  0.49999901  0.54819636  0.80270030  1
  C  C38  1  0.50000578  0.60496195  0.58279164  1
  C  C39  1  0.49999838  0.59657482  0.82283196  1
  C  C40  1  0.49999818  0.62564927  0.71071762  1
  C  C41  1  0.49999887  0.61680600  0.95253778  1
  C  C42  1  0.49999795  0.67371610  0.72723655  1
  C  C43  1  0.49999921  0.66253215  0.96924893  1
  C  C44  1  0.49999837  0.70319390  0.61516842  1
  C  C45  1  0.49999886  0.69263147  0.85857882  1
  C  C46  1  0.49999936  0.74896536  0.63170575  1
  C  C47  1  0.49999963  0.74087022  0.87627868  1
  C  C48  1  0.49999977  0.76915970  0.76028148  1
  C  C49  1  0.50000009  0.76071440  1.00552623  1
  C  C50  1  0.50000012  0.81793370  0.77605124  1
  C  C51  1  0.50000028  0.80727452  1.02112376  1
  H  H52  1  0.50000014  0.88356970  0.68753183  1
  H  H53  1  0.50000026  0.87169258  0.92360858  1
  H  H54  1  0.50000146  0.12774963  0.49658696  1
  H  H55  1  0.50000578  0.12081155  0.73005980  1
  H  H56  1  0.49999957  0.83680109  0.56372124  1
  H  H57  1  0.50000038  0.18203812  0.40525758  1
  H  H58  1  0.50000427  0.24445288  0.43575181  1
  H  H59  1  0.50003231  0.27431345  0.05068409  1
  H  H60  1  0.50000797  0.27336555  0.28105311  1
  H  H61  1  0.49999324  0.50893655  0.16789090  1
  H  H62  1  0.49996811  0.50809775  0.39874821  1
  H  H63  1  0.50003184  0.55038427  0.45978070  1
  H  H64  1  0.50001049  0.62561663  0.49216942  1
  H  H65  1  0.49999790  0.68977356  0.51304335  1
  H  H66  1  0.49999968  0.77004697  0.54186932  1
  H  H67  1  0.49999056  0.15570432  -0.04251286  1
  H  H68  1  0.49996299  0.23261195  -0.01053379  1
  H  H69  1  0.49999717  0.53717695  0.01381034  1
  H  H70  1  0.49999957  0.59637145  0.04350940  1
  H  H71  1  0.49999998  0.67560242  0.07184698  1
  H  H72  1  0.50000011  0.73974408  0.09545364  1
  H  H73  1  0.50000032  0.82158056  0.12255050  1
