# generated using pymatgen
data_HC2
_symmetry_space_group_name_H-M   'P 1'
_cell_length_a   10.00000000
_cell_length_b   29.89204000
_cell_length_c   9.98428314
_cell_angle_alpha   90.00000000
_cell_angle_beta   90.00000000
_cell_angle_gamma   90.00000000
_symmetry_Int_Tables_number   1
_chemical_formula_structural   HC2
_chemical_formula_sum   'H22 C44'
_cell_volume   2984.50590932
_cell_formula_units_Z   22
loop_
 _symmetry_equiv_pos_site_id
 _symmetry_equiv_pos_as_xyz
  1  'x, y, z'
loop_
 _atom_site_type_symbol
 _atom_site_label
 _atom_site_symmetry_multiplicity
 _atom_site_fract_x
 _atom_site_fract_y
 _atom_site_fract_z
 _atom_site_occupancy
  C  C0  1  0.49999824  0.20269551  0.47029665  1
  C  C1  1  0.49999769  0.19638645  0.71226643  1
  C  C2  1  0.49999755  0.22367795  0.59421322  1
  C  C3  1  0.49999779  0.21507124  0.83913665  1
  C  C4  1  0.49999797  0.27243349  0.61278997  1
  C  C5  1  0.49999950  0.26158157  0.85636701  1
  C  C6  1  0.49999762  0.30223555  0.50259403  1
  C  C7  1  0.50000099  0.29101397  0.74506047  1
  C  C8  1  0.50000552  0.34807527  0.51896287  1
  C  C9  1  0.50001110  0.33934934  0.76225844  1
  C  C10  1  0.50001689  0.36809988  0.64833953  1
  C  C11  1  0.50002079  0.35943984  0.89150637  1
  C  C12  1  0.50003510  0.41619024  0.66649487  1
  C  C13  1  0.50004351  0.40506527  0.90869036  1
  C  C14  1  0.50002467  0.44640890  0.55646358  1
  C  C15  1  0.50005236  0.43488429  0.79760382  1
  C  C16  1  0.50003253  0.49206548  0.57396939  1
  C  C17  1  0.50003810  0.48287926  0.81518106  1
  C  C18  1  0.50004230  0.51206625  0.70359104  1
  C  C19  1  0.49982829  0.50347333  0.94298530  1
  C  C20  1  0.50002511  0.56046418  0.72352793  1
  C  C21  1  0.49966661  0.54907605  0.96063756  1
  C  C22  1  0.50005668  0.58784461  0.61059959  1
  C  C23  1  0.49991515  0.58116549  0.85364885  1
  C  C24  1  0.50031084  0.63573907  0.11676235  1
  C  C25  1  0.50013951  0.63539832  0.36369581  1
  C  C26  1  0.50002086  0.63405592  0.61464386  1
  C  C27  1  0.50000017  0.63038377  0.86333995  1
  C  C28  1  0.50013466  0.65828329  0.24014191  1
  C  C29  1  0.50004052  0.65773788  0.48610737  1
  C  C30  1  0.50000230  0.65646533  0.74234479  1
  C  C31  1  0.50007669  0.65586000  0.98997237  1
  C  C32  1  0.49996812  0.70586642  0.23991572  1
  C  C33  1  0.49998820  0.70580077  0.48681437  1
  C  C34  1  0.49999471  0.70560673  0.74210881  1
  C  C35  1  0.49996163  0.70497226  0.98954499  1
  C  C36  1  0.49993696  0.72696727  0.11395008  1
  C  C37  1  0.49993916  0.72865604  0.36362334  1
  C  C38  1  0.49998986  0.72849438  0.61474800  1
  C  C39  1  0.49996460  0.73037958  0.86523570  1
  C  C40  1  0.49999036  0.77590328  0.61356192  1
  C  C41  1  0.49997305  0.78004878  0.86029606  1
  C  C42  1  0.49998581  0.79997011  0.72871462  1
  C  C43  1  0.49999081  0.81319125  0.95808642  1
  H  H44  1  0.49999822  0.16602941  0.46552958  1
  H  H45  1  0.49999815  0.15994117  0.69955776  1
  H  H46  1  0.49999880  0.83656752  0.72365457  1
  H  H47  1  0.49999850  0.84776863  0.92122541  1
  H  H48  1  0.49999858  0.22059730  0.37480750  1
  H  H49  1  0.49999285  0.28870963  0.40069276  1
  H  H50  1  0.50000536  0.36913943  0.42936392  1
  H  H51  1  0.50000265  0.43352037  0.45397428  1
  H  H52  1  0.50001204  0.51272443  0.48373297  1
  H  H53  1  0.50008684  0.57184768  0.51315540  1
  H  H54  1  0.50078792  0.59996718  0.12805434  1
  H  H55  1  0.50018243  0.59886212  0.35856744  1
  H  H56  1  0.49989747  0.76297579  0.11615745  1
  H  H57  1  0.49989462  0.76520508  0.35964644  1
  H  H58  1  0.50000369  0.79387814  0.51850221  1
  H  H59  1  0.49999826  0.19323473  -0.07267850  1
  H  H60  1  0.50000191  0.27481339  -0.04169057  1
  H  H61  1  0.50001079  0.33836431  -0.01903187  1
  H  H62  1  0.50005709  0.41836648  0.01074289  1
  H  H63  1  0.49968609  0.48289837  0.03364876  1
  H  H64  1  0.49916783  0.55833252  0.06497709  1
  H  H65  1  0.50000902  0.81082414  0.06661676  1
