# generated using pymatgen
data_HC2
_symmetry_space_group_name_H-M   'P 1'
_cell_length_a   10.00000000
_cell_length_b   25.62946000
_cell_length_c   9.98292330
_cell_angle_alpha   90.00000000
_cell_angle_beta   90.00000000
_cell_angle_gamma   90.00000000
_symmetry_Int_Tables_number   1
_chemical_formula_structural   HC2
_chemical_formula_sum   'H20 C40'
_cell_volume   2558.56933285
_cell_formula_units_Z   20
loop_
 _symmetry_equiv_pos_site_id
 _symmetry_equiv_pos_as_xyz
  1  'x, y, z'
loop_
 _atom_site_type_symbol
 _atom_site_label
 _atom_site_symmetry_multiplicity
 _atom_site_fract_x
 _atom_site_fract_y
 _atom_site_fract_z
 _atom_site_occupancy
  C  C0  1  0.50000167  0.82067261  0.65614068  1
  C  C1  1  0.50000489  0.80644540  0.89705767  1
  C  C2  1  0.49999603  0.17689474  0.55123409  1
  C  C3  1  0.50000641  0.19214154  0.78062676  1
  C  C4  1  0.50000651  0.21545792  0.64920599  1
  C  C5  1  0.50000580  0.22013275  0.89582488  1
  C  C6  1  0.50001889  0.27535242  0.14619861  1
  C  C7  1  0.50002028  0.27736104  0.39566910  1
  C  C8  1  0.50001022  0.27338799  0.64438788  1
  C  C9  1  0.50000495  0.27545716  0.89488278  1
  C  C10  1  0.50000533  0.30195347  0.02284513  1
  C  C11  1  0.50001100  0.30195965  0.26979444  1
  C  C12  1  0.50001162  0.30303458  0.52011818  1
  C  C13  1  0.50000296  0.30223967  0.76758327  1
  C  C14  1  0.49999070  0.35799311  0.02348299  1
  C  C15  1  0.49996327  0.35742764  0.26952542  1
  C  C16  1  0.49997846  0.36032362  0.51984727  1
  C  C17  1  0.50000058  0.35956549  0.76745133  1
  C  C18  1  0.49996247  0.38404260  0.14593652  1
  C  C19  1  0.49991219  0.38370561  0.39298220  1
  C  C20  1  0.50000011  0.39006692  0.64654032  1
  C  C21  1  0.49999534  0.38567474  0.89515198  1
  C  C22  1  0.50002349  0.44748620  0.65654908  1
  C  C23  1  0.49998315  0.43956404  0.89949301  1
  C  C24  1  0.50009610  0.48494131  0.54962485  1
  C  C25  1  0.49999080  0.47158895  0.78680738  1
  C  C26  1  0.50004734  0.53812359  0.56774785  1
  C  C27  1  0.49998493  0.52800927  0.80726392  1
  C  C28  1  0.49998584  0.56203166  0.69570334  1
  C  C29  1  0.49998719  0.55129859  0.93698422  1
  C  C30  1  0.49998192  0.61801181  0.71310053  1
  C  C31  1  0.49998923  0.60460556  0.95429211  1
  C  C32  1  0.49998555  0.65262173  0.60183693  1
  C  C33  1  0.49998673  0.63988743  0.84433141  1
  C  C34  1  0.49999342  0.70598774  0.61891952  1
  C  C35  1  0.49999306  0.69616835  0.86269922  1
  C  C36  1  0.49999615  0.72934480  0.74736494  1
  C  C37  1  0.49999697  0.71929779  0.99169587  1
  C  C38  1  0.50000138  0.78624926  0.76323586  1
  C  C39  1  0.50000273  0.77363301  1.00737972  1
  H  H40  1  0.50000500  0.86279677  0.67465399  1
  H  H41  1  0.50000845  0.84889689  0.91045840  1
  H  H42  1  0.49999579  0.13646664  0.58733317  1
  H  H43  1  0.50000293  0.14944674  0.78551414  1
  H  H44  1  0.49999715  0.80814099  0.55146114  1
  H  H45  1  0.49998280  0.17984760  0.44281590  1
  H  H46  1  0.50003019  0.23273610  0.15000196  1
  H  H47  1  0.50003493  0.23537293  0.39338325  1
  H  H48  1  0.49995059  0.42664546  0.15119232  1
  H  H49  1  0.49977593  0.42541144  0.38189281  1
  H  H50  1  0.50024599  0.47427703  0.44510717  1
  H  H51  1  0.50008846  0.56221407  0.47734341  1
  H  H52  1  0.49998207  0.63703372  0.49993657  1
  H  H53  1  0.49999815  0.73075307  0.52966831  1
  H  H54  1  0.50000313  0.19896073  -0.00941245  1
  H  H55  1  0.49997433  0.45820900  -0.00304361  1
  H  H56  1  0.49999283  0.52722814  0.02734446  1
  H  H57  1  0.49999525  0.61964379  0.05679765  1
  H  H58  1  0.49999525  0.69489823  0.08155750  1
  H  H59  1  0.50000512  0.79035382  0.10847668  1
