# generated using pymatgen
data_H9C26
_symmetry_space_group_name_H-M   'P 1'
_cell_length_a   10.00000000
_cell_length_b   29.89204000
_cell_length_c   9.91835319
_cell_angle_alpha   90.00000000
_cell_angle_beta   90.00000000
_cell_angle_gamma   90.00000000
_symmetry_Int_Tables_number   1
_chemical_formula_structural   H9C26
_chemical_formula_sum   'H18 C52'
_cell_volume   2964.79810280
_cell_formula_units_Z   2
loop_
 _symmetry_equiv_pos_site_id
 _symmetry_equiv_pos_as_xyz
  1  'x, y, z'
loop_
 _atom_site_type_symbol
 _atom_site_label
 _atom_site_symmetry_multiplicity
 _atom_site_fract_x
 _atom_site_fract_y
 _atom_site_fract_z
 _atom_site_occupancy
  C  C0  1  0.49999961  0.18696629  0.56885783  1
  C  C1  1  0.50000017  0.19983549  0.80114172  1
  C  C2  1  0.49999994  0.21968437  0.66839730  1
  C  C3  1  0.50000017  0.22404822  0.91689348  1
  C  C4  1  0.50000013  0.27399167  0.16468175  1
  C  C5  1  0.50000025  0.27393609  0.41150549  1
  C  C6  1  0.49999996  0.26923654  0.66279839  1
  C  C7  1  0.50000005  0.27152085  0.91447340  1
  C  C8  1  0.50000001  0.29583415  0.03972459  1
  C  C9  1  0.50000006  0.29710911  0.28836788  1
  C  C10  1  0.49999999  0.29457783  0.53801778  1
  C  C11  1  0.49999997  0.29409201  0.78690708  1
  C  C12  1  0.49999984  0.34382552  0.03819131  1
  C  C13  1  0.49999978  0.34468395  0.28902313  1
  C  C14  1  0.49999977  0.34306002  0.53963522  1
  C  C15  1  0.49999986  0.34286429  0.78756341  1
  C  C16  1  0.49999969  0.36732774  0.16278074  1
  C  C17  1  0.49999971  0.36731144  0.41567948  1
  C  C18  1  0.49999971  0.36725624  0.66404463  1
  C  C19  1  0.49999983  0.36726862  0.91209383  1
  C  C20  1  0.49999966  0.41480646  0.16294328  1
  C  C21  1  0.49999969  0.41531334  0.41609394  1
  C  C22  1  0.49999963  0.41568301  0.66423796  1
  C  C23  1  0.49999985  0.41541065  0.91218219  1
  C  C24  1  0.49999986  0.43857636  0.03873822  1
  C  C25  1  0.49999979  0.43748115  0.28911636  1
  C  C26  1  0.49999966  0.43999224  0.53988229  1
  C  C27  1  0.49999986  0.43991183  0.78775723  1
  C  C28  1  0.50000017  0.48634268  0.04170770  1
  C  C29  1  0.50000093  0.48475770  0.28875622  1
  C  C30  1  0.50000049  0.48869634  0.53847144  1
  C  C31  1  0.49999992  0.48864205  0.78743065  1
  C  C32  1  0.50000090  0.50803363  0.16548959  1
  C  C33  1  0.50000231  0.50828461  0.41097911  1
  C  C34  1  0.49999992  0.51450447  0.66552434  1
  C  C35  1  0.50000004  0.51105370  0.91518824  1
  C  C36  1  0.49999934  0.56359057  0.67546097  1
  C  C37  1  0.50000034  0.55724727  0.92035631  1
  C  C38  1  0.49999759  0.59544152  0.56723099  1
  C  C39  1  0.50000014  0.58450734  0.80643756  1
  C  C40  1  0.49999885  0.64107521  0.58437587  1
  C  C41  1  0.50000031  0.63300487  0.82569581  1
  C  C42  1  0.50000037  0.66193657  0.71248195  1
  C  C43  1  0.50000018  0.65328661  0.95554908  1
  C  C44  1  0.50000048  0.71016611  0.72831077  1
  C  C45  1  0.50000014  0.69918280  0.97174278  1
  C  C46  1  0.50000045  0.73919312  0.61551043  1
  C  C47  1  0.50000029  0.72894061  0.86094613  1
  C  C48  1  0.50000021  0.78574339  0.63180653  1
  C  C49  1  0.50000012  0.77766801  0.87875300  1
  C  C50  1  0.50000006  0.80469864  0.75928426  1
  C  C51  1  0.49999998  0.79835160  1.00380183  1
  H  H52  1  0.49999978  0.15207633  0.60329775  1
  H  H53  1  0.50000019  0.16320611  0.80668987  1
  H  H54  1  0.49999989  0.84116841  0.77117188  1
  H  H55  1  0.49999984  0.83495996  1.01016758  1
  H  H56  1  0.49999904  0.19040202  0.45994298  1
  H  H57  1  0.50000026  0.23748363  0.16996202  1
  H  H58  1  0.50000073  0.23799439  0.40340198  1
  H  H59  1  0.50000121  0.54452131  0.17222850  1
  H  H60  1  0.50000584  0.54395144  0.39744348  1
  H  H61  1  0.49999388  0.58589170  0.46241702  1
  H  H62  1  0.49999788  0.66150600  0.49290309  1
  H  H63  1  0.50000059  0.72547817  0.51342463  1
  H  H64  1  0.50000014  0.80728726  0.54232733  1
  H  H65  1  0.50000022  0.20609736  0.01268856  1
  H  H66  1  0.50000058  0.57328667  0.01848477  1
  H  H67  1  0.49999995  0.63288780  0.04696824  1
  H  H68  1  0.49999992  0.71255908  0.07444032  1
  H  H69  1  0.49999999  0.77989496  0.09901854  1
