# generated using pymatgen
data_H11C26
_symmetry_space_group_name_H-M   'P 1'
_cell_length_a   10.00000000
_cell_length_b   29.89204000
_cell_length_c   9.90198024
_cell_angle_alpha   90.00000000
_cell_angle_beta   90.00000000
_cell_angle_gamma   90.00000000
_symmetry_Int_Tables_number   1
_chemical_formula_structural   H11C26
_chemical_formula_sum   'H22 C52'
_cell_volume   2959.90389466
_cell_formula_units_Z   2
loop_
 _symmetry_equiv_pos_site_id
 _symmetry_equiv_pos_as_xyz
  1  'x, y, z'
loop_
 _atom_site_type_symbol
 _atom_site_label
 _atom_site_symmetry_multiplicity
 _atom_site_fract_x
 _atom_site_fract_y
 _atom_site_fract_z
 _atom_site_occupancy
  C  C0  1  0.49999960  0.84637166  0.67490963  1
  C  C1  1  0.50000025  0.83555463  0.91823811  1
  C  C2  1  0.49998624  0.16177036  0.00605412  1
  C  C3  1  0.49998079  0.16150911  0.25843133  1
  C  C4  1  0.49998111  0.16234785  0.50891057  1
  C  C5  1  0.49998920  0.16286941  0.75683564  1
  C  C6  1  0.49997584  0.18372252  0.13214191  1
  C  C7  1  0.49997679  0.18456060  0.38365895  1
  C  C8  1  0.49997688  0.18585549  0.63269885  1
  C  C9  1  0.49998615  0.18540767  0.88169539  1
  C  C10  1  0.49997707  0.23203889  0.13188008  1
  C  C11  1  0.49997674  0.23307884  0.38420817  1
  C  C12  1  0.49996941  0.23437779  0.63278270  1
  C  C13  1  0.49998777  0.23389267  0.88130235  1
  C  C14  1  0.49999245  0.25639395  0.00823522  1
  C  C15  1  0.49999150  0.25506648  0.25735262  1
  C  C16  1  0.49997291  0.25803638  0.50788416  1
  C  C17  1  0.49998932  0.25827722  0.75676937  1
  C  C18  1  0.50002287  0.30436941  0.01057150  1
  C  C19  1  0.50009726  0.30251256  0.25721722  1
  C  C20  1  0.50004619  0.30681855  0.50665792  1
  C  C21  1  0.49999414  0.30701668  0.75595273  1
  C  C22  1  0.50009650  0.32598606  0.13438602  1
  C  C23  1  0.50021470  0.32625597  0.37917014  1
  C  C24  1  0.49999237  0.33273613  0.63362553  1
  C  C25  1  0.50000770  0.32929871  0.88390925  1
  C  C26  1  0.49993757  0.38190469  0.64305058  1
  C  C27  1  0.50003380  0.37558398  0.88868951  1
  C  C28  1  0.49977490  0.41379895  0.53450871  1
  C  C29  1  0.50001142  0.40285124  0.77435387  1
  C  C30  1  0.49987764  0.45944614  0.55167887  1
  C  C31  1  0.50002544  0.45140485  0.79345142  1
  C  C32  1  0.50002009  0.48038954  0.68024048  1
  C  C33  1  0.50002228  0.47191393  0.92355722  1
  C  C34  1  0.50003285  0.52849980  0.69641893  1
  C  C35  1  0.50001717  0.51770121  0.93986420  1
  C  C36  1  0.50002899  0.55780612  0.58309156  1
  C  C37  1  0.50002332  0.54771711  0.82803922  1
  C  C38  1  0.50001465  0.60349071  0.59834422  1
  C  C39  1  0.50001205  0.59596794  0.84408020  1
  C  C40  1  0.50000790  0.62417794  0.72793877  1
  C  C41  1  0.50000477  0.61703232  0.97325207  1
  C  C42  1  0.50000116  0.67247678  0.74247025  1
  C  C43  1  0.49999944  0.66286829  0.98709073  1
  C  C44  1  0.49999977  0.70156622  0.62861610  1
  C  C45  1  0.49999945  0.69214161  0.87367520  1
  C  C46  1  0.49999904  0.74745759  0.64304319  1
  C  C47  1  0.49999891  0.74061945  0.88917364  1
  C  C48  1  0.49999911  0.76839470  0.77125115  1
  C  C49  1  0.49999954  0.76139427  1.01796001  1
  C  C50  1  0.49999966  0.81735487  0.78427878  1
  C  C51  1  0.50000022  0.80810125  1.03099750  1
  H  H52  1  0.49999992  0.88261021  0.69202294  1
  H  H53  1  0.50000065  0.87205135  0.92983719  1
  H  H54  1  0.49999649  0.12506335  0.00286150  1
  H  H55  1  0.49999027  0.12478599  0.25976158  1
  H  H56  1  0.49999069  0.12565539  0.51154901  1
  H  H57  1  0.50000041  0.12617999  0.75586901  1
  H  H58  1  0.49999913  0.83524526  0.56970135  1
  H  H59  1  0.50013075  0.36245104  0.14200677  1
  H  H60  1  0.50051736  0.36193322  0.36549831  1
  H  H61  1  0.49945197  0.40438564  0.42925888  1
  H  H62  1  0.49977847  0.47981663  0.45987819  1
  H  H63  1  0.50003925  0.54414266  0.48068898  1
  H  H64  1  0.50000898  0.62416765  0.50729926  1
  H  H65  1  0.50000032  0.68779330  0.52631945  1
  H  H66  1  0.49999933  0.76815588  0.55183431  1
  H  H67  1  0.50005844  0.39171579  -0.01311899  1
  H  H68  1  0.50000988  0.45147550  0.01510441  1
  H  H69  1  0.50000345  0.53096532  0.04283136  1
  H  H70  1  0.50000446  0.59668361  0.06506938  1
  H  H71  1  0.49999618  0.67685566  0.08914743  1
  H  H72  1  0.49999994  0.74112461  0.10984702  1
  H  H73  1  0.50000081  0.82306946  0.13213682  1
