# generated using pymatgen
data_HC2
_symmetry_space_group_name_H-M   'P 1'
_cell_length_a   10.00000000
_cell_length_b   25.62946000
_cell_length_c   9.97817354
_cell_angle_alpha   90.00000000
_cell_angle_beta   90.00000000
_cell_angle_gamma   90.00000000
_symmetry_Int_Tables_number   1
_chemical_formula_structural   HC2
_chemical_formula_sum   'H18 C36'
_cell_volume   2557.35199629
_cell_formula_units_Z   18
loop_
 _symmetry_equiv_pos_site_id
 _symmetry_equiv_pos_as_xyz
  1  'x, y, z'
loop_
 _atom_site_type_symbol
 _atom_site_label
 _atom_site_symmetry_multiplicity
 _atom_site_fract_x
 _atom_site_fract_y
 _atom_site_fract_z
 _atom_site_occupancy
  C  C0  1  0.49999755  0.23705439  0.50169691  1
  C  C1  1  0.49999710  0.22918500  0.74434770  1
  C  C2  1  0.49999911  0.26100483  0.62616998  1
  C  C3  1  0.49999960  0.25090615  0.87140823  1
  C  C4  1  0.50000258  0.31779102  0.64487029  1
  C  C5  1  0.50000360  0.30514179  0.88866587  1
  C  C6  1  0.50000274  0.35281141  0.53537573  1
  C  C7  1  0.50000452  0.33929184  0.77709948  1
  C  C8  1  0.50000412  0.40629624  0.55243642  1
  C  C9  1  0.50000452  0.39553813  0.79385031  1
  C  C10  1  0.50000488  0.42953126  0.68190786  1
  C  C11  1  0.49999294  0.41957309  0.92141521  1
  C  C12  1  0.50000342  0.48597725  0.70211978  1
  C  C13  1  0.49998368  0.47278339  0.93909401  1
  C  C14  1  0.50000476  0.51802139  0.58942225  1
  C  C15  1  0.49999673  0.51015555  0.83225501  1
  C  C16  1  0.50001662  0.57382165  0.09627916  1
  C  C17  1  0.50000710  0.57357065  0.34328761  1
  C  C18  1  0.50000121  0.57194049  0.59396489  1
  C  C19  1  0.50000028  0.56751690  0.84243343  1
  C  C20  1  0.50000700  0.60018867  0.21974002  1
  C  C21  1  0.50000176  0.59970126  0.46572595  1
  C  C22  1  0.49999969  0.59805513  0.72162359  1
  C  C23  1  0.50000420  0.59713637  0.96930896  1
  C  C24  1  0.49999792  0.65567875  0.21947010  1
  C  C25  1  0.49999873  0.65578477  0.46643938  1
  C  C26  1  0.49999885  0.65539203  0.72167508  1
  C  C27  1  0.49999768  0.65440358  0.96905516  1
  C  C28  1  0.49999605  0.68011097  0.09345628  1
  C  C29  1  0.49999626  0.68240243  0.34305755  1
  C  C30  1  0.49999850  0.68224308  0.59450524  1
  C  C31  1  0.49999758  0.68418500  0.84504648  1
  C  C32  1  0.49999813  0.73759912  0.59388829  1
  C  C33  1  0.49999830  0.74219255  0.84072083  1
  C  C34  1  0.49999821  0.76555808  0.70923994  1
  C  C35  1  0.50000046  0.78074548  0.93886600  1
  H  H36  1  0.49999514  0.19438144  0.49522710  1
  H  H37  1  0.49999326  0.18669102  0.73173620  1
  H  H38  1  0.49999882  0.80828577  0.70431388  1
  H  H39  1  0.50000085  0.82116106  0.90261411  1
  H  H40  1  0.49999930  0.25849219  0.40700012  1
  H  H41  1  0.50000082  0.33752119  0.43293464  1
  H  H42  1  0.50000285  0.43039856  0.46205370  1
  H  H43  1  0.50000738  0.49939990  0.49188502  1
  H  H44  1  0.50004190  0.53211012  0.10768767  1
  H  H45  1  0.50000931  0.53095719  0.33784027  1
  H  H46  1  0.49999316  0.72208468  0.09507347  1
  H  H47  1  0.49999419  0.72504516  0.33927747  1
  H  H48  1  0.49999840  0.75875773  0.49909255  1
  H  H49  1  0.49999806  0.22547111  -0.04022290  1
  H  H50  1  0.50000561  0.32078307  -0.00952808  1
  H  H51  1  0.49998515  0.39562325  0.01216539  1
  H  H52  1  0.49995665  0.48352983  0.04347591  1
  H  H53  1  0.50000277  0.77791085  0.04745454  1
