# generated using pymatgen
data_HC4
_symmetry_space_group_name_H-M   'P 1'
_cell_length_a   10.00000000
_cell_length_b   25.62946000
_cell_length_c   9.88745055
_cell_angle_alpha   90.00000000
_cell_angle_beta   90.00000000
_cell_angle_gamma   90.00000000
_symmetry_Int_Tables_number   1
_chemical_formula_structural   HC4
_chemical_formula_sum   'H12 C48'
_cell_volume   2534.10018457
_cell_formula_units_Z   12
loop_
 _symmetry_equiv_pos_site_id
 _symmetry_equiv_pos_as_xyz
  1  'x, y, z'
loop_
 _atom_site_type_symbol
 _atom_site_label
 _atom_site_symmetry_multiplicity
 _atom_site_fract_x
 _atom_site_fract_y
 _atom_site_fract_z
 _atom_site_occupancy
  C  C0  1  0.50000004  0.23638451  0.53140007  1
  C  C1  1  0.50000047  0.22823331  0.77394764  1
  C  C2  1  0.50000025  0.26056075  0.65637945  1
  C  C3  1  0.50000055  0.25077905  0.90001196  1
  C  C4  1  0.50000035  0.31781924  0.67702218  1
  C  C5  1  0.50000026  0.30524319  0.91803562  1
  C  C6  1  0.50000018  0.34930560  0.56364687  1
  C  C7  1  0.50000043  0.34188055  0.81002302  1
  C  C8  1  0.50000027  0.40701180  0.07216181  1
  C  C9  1  0.49999992  0.40696212  0.31736877  1
  C  C10  1  0.50000044  0.40355380  0.56796844  1
  C  C11  1  0.50000057  0.39953802  0.81839574  1
  C  C12  1  0.49999995  0.43437073  0.19455893  1
  C  C13  1  0.50000029  0.43224671  0.44173455  1
  C  C14  1  0.50000069  0.42954827  0.69595543  1
  C  C15  1  0.50000051  0.42984477  0.94454000  1
  C  C16  1  0.50000007  0.48956599  0.19442900  1
  C  C17  1  0.50000041  0.48804184  0.44392842  1
  C  C18  1  0.50000062  0.48634963  0.69539663  1
  C  C19  1  0.50000042  0.48660012  0.94370277  1
  C  C20  1  0.50000022  0.51551520  0.06791323  1
  C  C21  1  0.50000020  0.51634140  0.31997607  1
  C  C22  1  0.50000045  0.51474254  0.57056970  1
  C  C23  1  0.50000040  0.51463963  0.81928593  1
  C  C24  1  0.50000009  0.57142608  0.06873526  1
  C  C25  1  0.50000006  0.57190769  0.32017326  1
  C  C26  1  0.49999993  0.57072140  0.57042047  1
  C  C27  1  0.49999999  0.57078889  0.81950185  1
  C  C28  1  0.50000003  0.59910394  0.19434895  1
  C  C29  1  0.49999978  0.59899385  0.44560892  1
  C  C30  1  0.49999973  0.59859511  0.69504375  1
  C  C31  1  0.49999993  0.59893880  0.94418049  1
  C  C32  1  0.49999996  0.65495935  0.19492988  1
  C  C33  1  0.49999952  0.65492057  0.44557045  1
  C  C34  1  0.49999943  0.65473444  0.69519072  1
  C  C35  1  0.49999979  0.65489330  0.94479879  1
  C  C36  1  0.49999993  0.68249829  0.06991292  1
  C  C37  1  0.49999977  0.68243237  0.32039415  1
  C  C38  1  0.49999933  0.68251871  0.57054122  1
  C  C39  1  0.49999953  0.68248106  0.81994105  1
  C  C40  1  0.49999985  0.73893257  0.07021293  1
  C  C41  1  0.49999989  0.73887188  0.32046865  1
  C  C42  1  0.49999933  0.73894930  0.57056048  1
  C  C43  1  0.49999921  0.73893871  0.82020851  1
  C  C44  1  0.50000015  0.76543907  0.19540015  1
  C  C45  1  0.49999963  0.76546284  0.44544523  1
  C  C46  1  0.49999895  0.76556937  0.69542402  1
  C  C47  1  0.49999921  0.76553172  0.94533032  1
  H  H48  1  0.49999976  0.19363117  0.52714469  1
  H  H49  1  0.50000062  0.18578004  0.76122445  1
  H  H50  1  0.50000050  0.80822537  0.19563553  1
  H  H51  1  0.49999972  0.80824168  0.44543367  1
  H  H52  1  0.49999861  0.80836289  0.69563159  1
  H  H53  1  0.49999861  0.80835407  0.94568779  1
  H  H54  1  0.50000014  0.25670363  0.43416408  1
  H  H55  1  0.49999997  0.33025776  0.46550768  1
  H  H56  1  0.50000064  0.36546293  0.08519538  1
  H  H57  1  0.49999984  0.36444409  0.30988815  1
  H  H58  1  0.50000077  0.22597572  -0.00962732  1
  H  H59  1  0.49999985  0.31608203  0.02341972  1
