# generated using pymatgen
data_H5C26
_symmetry_space_group_name_H-M   'P 1'
_cell_length_a   10.00000000
_cell_length_b   25.62946000
_cell_length_c   9.88215830
_cell_angle_alpha   90.00000000
_cell_angle_beta   90.00000000
_cell_angle_gamma   90.00000000
_symmetry_Int_Tables_number   1
_chemical_formula_structural   H5C26
_chemical_formula_sum   'H10 C52'
_cell_volume   2532.74380896
_cell_formula_units_Z   2
loop_
 _symmetry_equiv_pos_site_id
 _symmetry_equiv_pos_as_xyz
  1  'x, y, z'
loop_
 _atom_site_type_symbol
 _atom_site_label
 _atom_site_symmetry_multiplicity
 _atom_site_fract_x
 _atom_site_fract_y
 _atom_site_fract_z
 _atom_site_occupancy
  C  C0  1  0.50000021  0.22074621  0.58998382  1
  C  C1  1  0.50000008  0.23582922  0.82303575  1
  C  C2  1  0.50000041  0.25893971  0.68973493  1
  C  C3  1  0.49999982  0.26400045  0.93931486  1
  C  C4  1  0.49999949  0.32242036  0.18644320  1
  C  C5  1  0.50000004  0.32231422  0.43273888  1
  C  C6  1  0.50000050  0.31671926  0.68412026  1
  C  C7  1  0.49999989  0.31940018  0.93663701  1
  C  C8  1  0.49999961  0.34798948  0.06160467  1
  C  C9  1  0.49999962  0.34955313  0.30972388  1
  C  C10  1  0.50000029  0.34638232  0.55940039  1
  C  C11  1  0.50000038  0.34558810  0.80870374  1
  C  C12  1  0.49999990  0.40397022  0.06003714  1
  C  C13  1  0.49999975  0.40506944  0.30989613  1
  C  C14  1  0.50000028  0.40290857  0.56035385  1
  C  C15  1  0.50000045  0.40229050  0.80923307  1
  C  C16  1  0.49999989  0.43204022  0.18441140  1
  C  C17  1  0.50000010  0.43149902  0.43595602  1
  C  C18  1  0.50000036  0.43058174  0.68515362  1
  C  C19  1  0.50000031  0.43079959  0.93402508  1
  C  C20  1  0.50000007  0.48766015  0.18470973  1
  C  C21  1  0.50000016  0.48731023  0.43573849  1
  C  C22  1  0.50000024  0.48670314  0.68520793  1
  C  C23  1  0.50000026  0.48680239  0.93444223  1
  C  C24  1  0.50000007  0.51492441  0.05941676  1
  C  C25  1  0.50000005  0.51502348  0.31041071  1
  C  C26  1  0.50000020  0.51482591  0.56057349  1
  C  C27  1  0.50000019  0.51465678  0.80975256  1
  C  C28  1  0.49999978  0.57075668  0.05974142  1
  C  C29  1  0.49999989  0.57079539  0.31020271  1
  C  C30  1  0.50000013  0.57067781  0.56029611  1
  C  C31  1  0.50000004  0.57060178  0.80993823  1
  C  C32  1  0.49999985  0.59842218  0.18495280  1
  C  C33  1  0.50000002  0.59841435  0.43526847  1
  C  C34  1  0.50000017  0.59840596  0.68517889  1
  C  C35  1  0.49999978  0.59844745  0.93483087  1
  C  C36  1  0.50000015  0.65435157  0.18508024  1
  C  C37  1  0.50000013  0.65434636  0.43524437  1
  C  C38  1  0.49999994  0.65435886  0.68518790  1
  C  C39  1  0.49999986  0.65437399  0.93500372  1
  C  C40  1  0.50000021  0.68199125  0.06010140  1
  C  C41  1  0.50000033  0.68196413  0.31020884  1
  C  C42  1  0.49999993  0.68198685  0.56019570  1
  C  C43  1  0.49999972  0.68202358  0.81008105  1
  C  C44  1  0.50000054  0.73844811  0.06017276  1
  C  C45  1  0.50000047  0.73842581  0.31022126  1
  C  C46  1  0.49999949  0.73844273  0.56017005  1
  C  C47  1  0.49999945  0.73847313  0.81012204  1
  C  C48  1  0.50000063  0.76503029  0.18519863  1
  C  C49  1  0.49999983  0.76505596  0.43519235  1
  C  C50  1  0.49999890  0.76507645  0.68515832  1
  C  C51  1  0.50000018  0.76505074  0.93517088  1
  H  H52  1  0.49999995  0.18010630  0.62486714  1
  H  H53  1  0.49999978  0.19310484  0.82822350  1
  H  H54  1  0.50000049  0.80782856  0.18521775  1
  H  H55  1  0.49999952  0.80786327  0.43523668  1
  H  H56  1  0.49999841  0.80787973  0.68535338  1
  H  H57  1  0.50000052  0.80784480  0.93526201  1
  H  H58  1  0.50000003  0.22457298  0.48061799  1
  H  H59  1  0.49999936  0.27987406  0.19199294  1
  H  H60  1  0.50000036  0.28038759  0.42429376  1
  H  H61  1  0.49999956  0.24293058  0.03525626  1
