# generated using pymatgen
data_H5C14
_symmetry_space_group_name_H-M   'P 1'
_cell_length_a   10.00000000
_cell_length_b   17.10430000
_cell_length_c   9.88716061
_cell_angle_alpha   90.00000000
_cell_angle_beta   90.00000000
_cell_angle_gamma   90.00000000
_symmetry_Int_Tables_number   1
_chemical_formula_structural   H5C14
_chemical_formula_sum   'H10 C28'
_cell_volume   1691.12961179
_cell_formula_units_Z   2
loop_
 _symmetry_equiv_pos_site_id
 _symmetry_equiv_pos_as_xyz
  1  'x, y, z'
loop_
 _atom_site_type_symbol
 _atom_site_label
 _atom_site_symmetry_multiplicity
 _atom_site_fract_x
 _atom_site_fract_y
 _atom_site_fract_z
 _atom_site_occupancy
  C  C0  1  0.49999996  0.72960490  0.58866422  1
  C  C1  1  0.50000003  0.70706474  0.82149080  1
  C  C2  1  0.50000000  0.28944758  0.05734014  1
  C  C3  1  0.50000000  0.28899861  0.30887205  1
  C  C4  1  0.50000000  0.28970962  0.55946013  1
  C  C5  1  0.50000000  0.29044290  0.80827537  1
  C  C6  1  0.50000000  0.32829791  0.18308375  1
  C  C7  1  0.50000000  0.32893926  0.43428325  1
  C  C8  1  0.50000000  0.33038782  0.68374371  1
  C  C9  1  0.50000000  0.33029355  0.93294516  1
  C  C10  1  0.50000000  0.41279778  0.18297702  1
  C  C11  1  0.50000000  0.41370427  0.43450684  1
  C  C12  1  0.50000000  0.41543357  0.68367985  1
  C  C13  1  0.50000000  0.41518891  0.93264235  1
  C  C14  1  0.50000000  0.45489047  0.05885068  1
  C  C15  1  0.50000000  0.45302472  0.30843227  1
  C  C16  1  0.49999999  0.45643097  0.55879977  1
  C  C17  1  0.50000000  0.45746721  0.80785552  1
  C  C18  1  0.50000000  0.53912811  0.06022146  1
  C  C19  1  0.50000000  0.53658089  0.30821410  1
  C  C20  1  0.50000000  0.54146228  0.55780305  1
  C  C21  1  0.50000000  0.54270360  0.80727445  1
  C  C22  1  0.50000000  0.57732645  0.18515883  1
  C  C23  1  0.50000001  0.57740112  0.43118272  1
  C  C24  1  0.50000000  0.58575489  0.68253951  1
  C  C25  1  0.50000001  0.58176565  0.93522273  1
  C  C26  1  0.50000000  0.67243610  0.68809837  1
  C  C27  1  0.50000003  0.66494727  0.93761955  1
  H  H28  1  0.49999998  0.79043856  0.62383409  1
  H  H29  1  0.50000004  0.77108893  0.82635714  1
  H  H30  1  0.50000000  0.22531249  0.05546882  1
  H  H31  1  0.50000000  0.22483623  0.30941412  1
  H  H32  1  0.50000000  0.22558531  0.56072703  1
  H  H33  1  0.50000000  0.22630077  0.80816171  1
  H  H34  1  0.49999988  0.72400437  0.47933628  1
  H  H35  1  0.50000000  0.64107480  0.19116181  1
  H  H36  1  0.50000005  0.64024530  0.42271343  1
  H  H37  1  0.50000006  0.69645455  0.03358790  1
