# generated using pymatgen
data_HC2
_symmetry_space_group_name_H-M   'P 1'
_cell_length_a   10.00000000
_cell_length_b   25.62946000
_cell_length_c   9.91829632
_cell_angle_alpha   90.00000000
_cell_angle_beta   90.00000000
_cell_angle_gamma   90.00000000
_symmetry_Int_Tables_number   1
_chemical_formula_structural   HC2
_chemical_formula_sum   'H20 C40'
_cell_volume   2542.00578675
_cell_formula_units_Z   20
loop_
 _symmetry_equiv_pos_site_id
 _symmetry_equiv_pos_as_xyz
  1  'x, y, z'
loop_
 _atom_site_type_symbol
 _atom_site_label
 _atom_site_symmetry_multiplicity
 _atom_site_fract_x
 _atom_site_fract_y
 _atom_site_fract_z
 _atom_site_occupancy
  C  C0  1  0.49998544  0.80376965  0.47485769  1
  C  C1  1  0.49998789  0.81173782  0.71902968  1
  C  C2  1  0.49999434  0.18915216  0.11096560  1
  C  C3  1  0.49999752  0.18687736  0.36691758  1
  C  C4  1  0.50000008  0.19095004  0.61843201  1
  C  C5  1  0.49999282  0.19230513  0.86459813  1
  C  C6  1  0.50000025  0.21243697  0.23997177  1
  C  C7  1  0.50000202  0.21501461  0.49017691  1
  C  C8  1  0.49999957  0.21908688  0.74121236  1
  C  C9  1  0.49999471  0.21849338  0.98950410  1
  C  C10  1  0.50002002  0.26854136  0.24072690  1
  C  C11  1  0.50000825  0.27153156  0.48754813  1
  C  C12  1  0.50000216  0.27606687  0.74167680  1
  C  C13  1  0.50000990  0.27576577  0.99116913  1
  C  C14  1  0.50004044  0.29718572  0.11995601  1
  C  C15  1  0.50002048  0.29606278  0.36325992  1
  C  C16  1  0.50000637  0.30128762  0.61321021  1
  C  C17  1  0.50000130  0.30576824  0.86390382  1
  C  C18  1  0.50001396  0.35536044  0.60758156  1
  C  C19  1  0.49999206  0.36293337  0.85322181  1
  C  C20  1  0.50000920  0.38710548  0.72188786  1
  C  C21  1  0.49995813  0.39963409  0.96199234  1
  C  C22  1  0.50001275  0.44372725  0.70364351  1
  C  C23  1  0.49997938  0.45290054  0.94550435  1
  C  C24  1  0.50001325  0.46755778  0.57378028  1
  C  C25  1  0.50001010  0.47730427  0.81718612  1
  C  C26  1  0.50001041  0.52089154  0.55781162  1
  C  C27  1  0.50001217  0.53336385  0.80109420  1
  C  C28  1  0.50000931  0.55565914  0.66970464  1
  C  C29  1  0.50001148  0.56782534  0.91371096  1
  C  C30  1  0.50000381  0.61174999  0.65287632  1
  C  C31  1  0.50000590  0.62110093  0.89778085  1
  C  C32  1  0.50000060  0.63534778  0.52307077  1
  C  C33  1  0.50000138  0.64496320  0.76818032  1
  C  C34  1  0.49999618  0.68877534  0.50762759  1
  C  C35  1  0.49999570  0.70136881  0.75209787  1
  C  C36  1  0.49999374  0.72314760  0.61924656  1
  C  C37  1  0.49999260  0.73563968  0.86430343  1
  C  C38  1  0.49998909  0.77990661  0.60031929  1
  C  C39  1  0.49998927  0.78989926  0.84682126  1
  H  H40  1  0.49998196  0.84644443  0.46827501  1
  H  H41  1  0.49998552  0.85422564  0.70618853  1
  H  H42  1  0.49999048  0.14645853  0.10245104  1
  H  H43  1  0.49999287  0.14407547  0.37120864  1
  H  H44  1  0.49999805  0.14816971  0.62415013  1
  H  H45  1  0.49998973  0.14948435  0.86377655  1
  H  H46  1  0.49998557  0.78229168  0.37961038  1
  H  H47  1  0.50009524  0.33868649  0.13733487  1
  H  H48  1  0.50002548  0.33861477  0.35570134  1
  H  H49  1  0.50002063  0.37409918  0.50940377  1
  H  H50  1  0.50001263  0.44387533  0.48212265  1
  H  H51  1  0.50000809  0.53641695  0.45515070  1
  H  H52  1  0.50000193  0.61108038  0.43241610  1
  H  H53  1  0.49999464  0.70481522  0.40537327  1
  H  H54  1  0.49989243  0.38757080  0.06619343  1
  H  H55  1  0.49995819  0.47674162  0.03689488  1
  H  H56  1  0.50001628  0.55210019  0.01617787  1
  H  H57  1  0.50000531  0.64537539  -0.01155564  1
  H  H58  1  0.49999309  0.72011794  -0.03306810  1
  H  H59  1  0.49998785  0.81537206  -0.06436565  1
