# generated using pymatgen
data_H5C38
_symmetry_space_group_name_H-M   'P 1'
_cell_length_a   10.00000000
_cell_length_b   29.89204000
_cell_length_c   9.88354203
_cell_angle_alpha   90.00000000
_cell_angle_beta   90.00000000
_cell_angle_gamma   90.00000000
_symmetry_Int_Tables_number   1
_chemical_formula_structural   H5C38
_chemical_formula_sum   'H10 C76'
_cell_volume   2954.39233602
_cell_formula_units_Z   2
loop_
 _symmetry_equiv_pos_site_id
 _symmetry_equiv_pos_as_xyz
  1  'x, y, z'
loop_
 _atom_site_type_symbol
 _atom_site_label
 _atom_site_symmetry_multiplicity
 _atom_site_fract_x
 _atom_site_fract_y
 _atom_site_fract_z
 _atom_site_occupancy
  C  C0  1  0.49999998  0.84681869  0.58890980  1
  C  C1  1  0.50000001  0.83387023  0.82177328  1
  C  C2  1  0.50000000  0.16569325  0.06233009  1
  C  C3  1  0.50000000  0.16568610  0.31232521  1
  C  C4  1  0.50000000  0.16568566  0.56230081  1
  C  C5  1  0.50000000  0.16569309  0.81229998  1
  C  C6  1  0.50000000  0.18850635  0.18730596  1
  C  C7  1  0.50000000  0.18850948  0.43728443  1
  C  C8  1  0.50000000  0.18850781  0.68726230  1
  C  C9  1  0.50000000  0.18850337  0.93728788  1
  C  C10  1  0.50000000  0.23690138  0.18717357  1
  C  C11  1  0.50000000  0.23690970  0.43715309  1
  C  C12  1  0.50000000  0.23690409  0.68713562  1
  C  C13  1  0.50000000  0.23689626  0.93716199  1
  C  C14  1  0.50000000  0.26060198  0.06211333  1
  C  C15  1  0.50000000  0.26061650  0.31210478  1
  C  C16  1  0.50000000  0.26061726  0.56208923  1
  C  C17  1  0.50000000  0.26060005  0.81209725  1
  C  C18  1  0.50000000  0.30854028  0.06184921  1
  C  C19  1  0.50000000  0.30855456  0.31183559  1
  C  C20  1  0.50000000  0.30855172  0.56184781  1
  C  C21  1  0.50000000  0.30853604  0.81186238  1
  C  C22  1  0.50000000  0.33233821  0.18673261  1
  C  C23  1  0.50000000  0.33233810  0.43675357  1
  C  C24  1  0.50000000  0.33232179  0.68678726  1
  C  C25  1  0.50000000  0.33232642  0.93677062  1
  C  C26  1  0.50000000  0.38017471  0.18637662  1
  C  C27  1  0.50000000  0.38016887  0.43642506  1
  C  C28  1  0.50000000  0.38014904  0.68646720  1
  C  C29  1  0.50000000  0.38015934  0.93643120  1
  C  C30  1  0.50000000  0.40399007  0.06128745  1
  C  C31  1  0.50000000  0.40397481  0.31130486  1
  C  C32  1  0.50000000  0.40395859  0.56136491  1
  C  C33  1  0.50000000  0.40395797  0.81132516  1
  C  C34  1  0.50000000  0.45178323  0.06087974  1
  C  C35  1  0.50000000  0.45176454  0.31095568  1
  C  C36  1  0.50000001  0.45174323  0.56104196  1
  C  C37  1  0.50000000  0.45174293  0.81091887  1
  C  C38  1  0.50000000  0.47558127  0.18578565  1
  C  C39  1  0.50000001  0.47553856  0.43594682  1
  C  C40  1  0.50000000  0.47556565  0.68592356  1
  C  C41  1  0.50000000  0.47557531  0.93570541  1
  C  C42  1  0.50000000  0.52334905  0.18536697  1
  C  C43  1  0.50000001  0.52330371  0.43569922  1
  C  C44  1  0.50000000  0.52334940  0.68563841  1
  C  C45  1  0.50000000  0.52333278  0.93521769  1
  C  C46  1  0.50000000  0.54708607  0.06003089  1
  C  C47  1  0.50000000  0.54704877  0.31054785  1
  C  C48  1  0.50000000  0.54714293  0.56064485  1
  C  C49  1  0.50000000  0.54725141  0.81028072  1
  C  C50  1  0.49999999  0.59483685  0.05934890  1
  C  C51  1  0.50000000  0.59476595  0.31038876  1
  C  C52  1  0.50000000  0.59492806  0.56057279  1
  C  C53  1  0.49999999  0.59511715  0.80976230  1
  C  C54  1  0.50000000  0.61820963  0.18460223  1
  C  C55  1  0.50000000  0.61853586  0.43565593  1
  C  C56  1  0.50000000  0.61904586  0.68509839  1
  C  C57  1  0.50000000  0.61900084  0.93434497  1
  C  C58  1  0.50000000  0.66583238  0.18421902  1
  C  C59  1  0.50000000  0.66632042  0.43568725  1
  C  C60  1  0.49999999  0.66708641  0.68499092  1
  C  C61  1  0.50000000  0.66691172  0.93391188  1
  C  C62  1  0.50000000  0.68990050  0.05981290  1
  C  C63  1  0.50000000  0.68899083  0.30958389  1
  C  C64  1  0.50000000  0.69081151  0.56012263  1
  C  C65  1  0.50000000  0.69128842  0.80905929  1
  C  C66  1  0.49999999  0.73784078  0.06100882  1
  C  C67  1  0.50000000  0.73656908  0.30915067  1
  C  C68  1  0.50000001  0.73918804  0.55877744  1
  C  C69  1  0.50000000  0.73981076  0.80806869  1
  C  C70  1  0.49999997  0.75978394  0.18574799  1
  C  C71  1  0.50000002  0.75988057  0.43215905  1
  C  C72  1  0.50000001  0.76452399  0.68340384  1
  C  C73  1  0.49999999  0.76230602  0.93587243  1
  C  C74  1  0.50000001  0.81401538  0.68861138  1
  C  C75  1  0.50000001  0.80977211  0.93817118  1
  H  H76  1  0.49999999  0.88160349  0.62437892  1
  H  H77  1  0.50000002  0.87049053  0.82672165  1
  H  H78  1  0.50000000  0.12899315  0.06242762  1
  H  H79  1  0.50000000  0.12898203  0.31237833  1
  H  H80  1  0.50000000  0.12898148  0.56242446  1
  H  H81  1  0.50000000  0.12899082  0.81238643  1
  H  H82  1  0.49999986  0.84370285  0.47950373  1
  H  H83  1  0.49999994  0.79626192  0.19101613  1
  H  H84  1  0.50000007  0.79582750  0.42451117  1
  H  H85  1  0.50000009  0.82787711  0.03400361  1
