# generated using pymatgen
data_H2C7
_symmetry_space_group_name_H-M   'P 1'
_cell_length_a   10.00000000
_cell_length_b   29.89204000
_cell_length_c   9.89029581
_cell_angle_alpha   90.00000000
_cell_angle_beta   90.00000000
_cell_angle_gamma   90.00000000
_symmetry_Int_Tables_number   1
_chemical_formula_structural   H2C7
_chemical_formula_sum   'H16 C56'
_cell_volume   2956.41117912
_cell_formula_units_Z   8
loop_
 _symmetry_equiv_pos_site_id
 _symmetry_equiv_pos_as_xyz
  1  'x, y, z'
loop_
 _atom_site_type_symbol
 _atom_site_label
 _atom_site_symmetry_multiplicity
 _atom_site_fract_x
 _atom_site_fract_y
 _atom_site_fract_z
 _atom_site_occupancy
  C  C0  1  0.50000002  0.20012687  0.04158216  1
  C  C1  1  0.50000000  0.20008474  0.29167617  1
  C  C2  1  0.50000000  0.19999788  0.54174959  1
  C  C3  1  0.50000002  0.20003682  0.79163586  1
  C  C4  1  0.50000002  0.22289154  0.16651374  1
  C  C5  1  0.49999999  0.22280538  0.41679554  1
  C  C6  1  0.50000002  0.22281173  0.66675532  1
  C  C7  1  0.50000003  0.22288575  0.91647718  1
  C  C8  1  0.50000001  0.27129562  0.16633191  1
  C  C9  1  0.49999999  0.27120892  0.41692782  1
  C  C10  1  0.50000000  0.27122032  0.66679475  1
  C  C11  1  0.50000001  0.27127193  0.91616445  1
  C  C12  1  0.49999999  0.29492787  0.04111221  1
  C  C13  1  0.49999999  0.29481428  0.29177807  1
  C  C14  1  0.49999998  0.29490326  0.54186374  1
  C  C15  1  0.49999999  0.29503614  0.79135815  1
  C  C16  1  0.49999995  0.34285188  0.04078575  1
  C  C17  1  0.49999996  0.34268290  0.29203971  1
  C  C18  1  0.49999994  0.34288797  0.54218371  1
  C  C19  1  0.49999996  0.34316177  0.79115388  1
  C  C20  1  0.49999991  0.36599749  0.16618824  1
  C  C21  1  0.49999994  0.36643234  0.41761568  1
  C  C22  1  0.49999993  0.36710383  0.66669202  1
  C  C23  1  0.49999996  0.36704287  0.91572340  1
  C  C24  1  0.49999985  0.41361628  0.16607192  1
  C  C25  1  0.49999992  0.41438070  0.41828270  1
  C  C26  1  0.49999991  0.41522622  0.66678442  1
  C  C27  1  0.49999999  0.41500470  0.91541078  1
  C  C28  1  0.49999992  0.43784463  0.04219867  1
  C  C29  1  0.49999992  0.43661178  0.29163235  1
  C  C30  1  0.49999986  0.43927072  0.54218829  1
  C  C31  1  0.50000002  0.43945818  0.79062430  1
  C  C32  1  0.50000004  0.48565127  0.04449313  1
  C  C33  1  0.50000038  0.48389673  0.29136137  1
  C  C34  1  0.50000013  0.48792091  0.54098836  1
  C  C35  1  0.50000004  0.48809374  0.78996138  1
  C  C36  1  0.50000031  0.50736227  0.16835082  1
  C  C37  1  0.50000103  0.50751041  0.41349487  1
  C  C38  1  0.49999986  0.51387308  0.66771032  1
  C  C39  1  0.50000011  0.51051679  0.91782006  1
  C  C40  1  0.49999950  0.56297823  0.67684676  1
  C  C41  1  0.50000036  0.55670448  0.92255498  1
  C  C42  1  0.49999802  0.59492497  0.56837049  1
  C  C43  1  0.50000035  0.58386790  0.80815289  1
  C  C44  1  0.49999838  0.64055413  0.58594153  1
  C  C45  1  0.50000069  0.63232181  0.82765122  1
  C  C46  1  0.49999963  0.66132573  0.71445059  1
  C  C47  1  0.50000222  0.65249004  0.95790181  1
  C  C48  1  0.49999948  0.70953907  0.73055159  1
  C  C49  1  0.50000218  0.69838281  0.97462821  1
  C  C50  1  0.49999794  0.73864914  0.61760417  1
  C  C51  1  0.50000071  0.72823900  0.86370646  1
  C  C52  1  0.49999772  0.78517044  0.63446841  1
  C  C53  1  0.50000054  0.77699815  0.88199417  1
  C  C54  1  0.49999900  0.80413014  0.76236344  1
  C  C55  1  0.50000189  0.79753033  1.00769844  1
  H  H56  1  0.49999998  0.16342996  0.04187923  1
  H  H57  1  0.50000001  0.16336911  0.29198759  1
  H  H58  1  0.50000003  0.16330307  0.54204770  1
  H  H59  1  0.50000000  0.16335794  0.79170066  1
  H  H60  1  0.49999900  0.84061986  0.77429335  1
  H  H61  1  0.50000187  0.83412608  1.01490768  1
  H  H62  1  0.50000046  0.54383430  0.17532223  1
  H  H63  1  0.50000267  0.54315835  0.39983605  1
  H  H64  1  0.49999588  0.58567376  0.46296087  1
  H  H65  1  0.49999736  0.66118720  0.49463237  1
  H  H66  1  0.49999662  0.72513572  0.51493989  1
  H  H67  1  0.49999645  0.80666485  0.54467217  1
  H  H68  1  0.50000015  0.57277562  0.02080470  1
  H  H69  1  0.50000359  0.63195008  0.04918835  1
  H  H70  1  0.50000345  0.71160337  0.07783961  1
  H  H71  1  0.50000294  0.77889749  0.10282960  1
