# generated using pymatgen
data_H5C14
_symmetry_space_group_name_H-M   'P 1'
_cell_length_a   10.00000000
_cell_length_b   29.89204000
_cell_length_c   9.92199887
_cell_angle_alpha   90.00000000
_cell_angle_beta   90.00000000
_cell_angle_gamma   90.00000000
_symmetry_Int_Tables_number   1
_chemical_formula_structural   H5C14
_chemical_formula_sum   'H20 C56'
_cell_volume   2965.88787147
_cell_formula_units_Z   4
loop_
 _symmetry_equiv_pos_site_id
 _symmetry_equiv_pos_as_xyz
  1  'x, y, z'
loop_
 _atom_site_type_symbol
 _atom_site_label
 _atom_site_symmetry_multiplicity
 _atom_site_fract_x
 _atom_site_fract_y
 _atom_site_fract_z
 _atom_site_occupancy
  C  C0  1  0.49999994  0.84762734  0.66061060  1
  C  C1  1  0.49999995  0.83544371  0.90250602  1
  C  C2  1  0.49999914  0.15083838  0.56024639  1
  C  C3  1  0.50000037  0.16363184  0.79263878  1
  C  C4  1  0.49999987  0.18346743  0.66001831  1
  C  C5  1  0.50000039  0.18780092  0.90838064  1
  C  C6  1  0.50000032  0.23774024  0.15619536  1
  C  C7  1  0.50000061  0.23760906  0.40294097  1
  C  C8  1  0.49999991  0.23300890  0.65442020  1
  C  C9  1  0.50000012  0.23526319  0.90611358  1
  C  C10  1  0.49999999  0.25958430  0.03131049  1
  C  C11  1  0.50000008  0.26082914  0.27988542  1
  C  C12  1  0.49999992  0.25826306  0.52946724  1
  C  C13  1  0.49999990  0.25783271  0.77857559  1
  C  C14  1  0.49999951  0.30757298  0.02974842  1
  C  C15  1  0.49999930  0.30841665  0.28053841  1
  C  C16  1  0.49999932  0.30675910  0.53106287  1
  C  C17  1  0.49999959  0.30657772  0.77920456  1
  C  C18  1  0.49999904  0.33108463  0.15431045  1
  C  C19  1  0.49999913  0.33102662  0.40710985  1
  C  C20  1  0.49999915  0.33088298  0.65551011  1
  C  C21  1  0.49999950  0.33099261  0.90368734  1
  C  C22  1  0.49999894  0.37856490  0.15444217  1
  C  C23  1  0.49999904  0.37904454  0.40751039  1
  C  C24  1  0.49999893  0.37929286  0.65562787  1
  C  C25  1  0.49999958  0.37912731  0.90369208  1
  C  C26  1  0.49999959  0.40232142  0.03015671  1
  C  C27  1  0.49999932  0.40126316  0.28058585  1
  C  C28  1  0.49999900  0.40364040  0.53133370  1
  C  C29  1  0.49999967  0.40355141  0.77912571  1
  C  C30  1  0.50000055  0.45007489  0.03288425  1
  C  C31  1  0.50000292  0.44854986  0.28007963  1
  C  C32  1  0.50000163  0.45231135  0.52992293  1
  C  C33  1  0.49999988  0.45226822  0.77852640  1
  C  C34  1  0.50000282  0.47178832  0.15664248  1
  C  C35  1  0.50000739  0.47195720  0.40250126  1
  C  C36  1  0.49999987  0.47816147  0.65669345  1
  C  C37  1  0.50000022  0.47471647  0.90619063  1
  C  C38  1  0.49999798  0.52726696  0.66628414  1
  C  C39  1  0.50000116  0.52089296  0.91095397  1
  C  C40  1  0.49999219  0.55921168  0.55829114  1
  C  C41  1  0.50000055  0.54817786  0.79711297  1
  C  C42  1  0.49999624  0.60480488  0.57579137  1
  C  C43  1  0.50000102  0.59655735  0.81693963  1
  C  C44  1  0.50000111  0.62556405  0.70419600  1
  C  C45  1  0.50000065  0.61682380  0.94704340  1
  C  C46  1  0.50000137  0.67364751  0.72046437  1
  C  C47  1  0.50000049  0.66258700  0.96347951  1
  C  C48  1  0.50000109  0.70297786  0.60764918  1
  C  C49  1  0.50000087  0.69261767  0.85222204  1
  C  C50  1  0.50000047  0.74879611  0.62367215  1
  C  C51  1  0.50000043  0.74092590  0.86936055  1
  C  C52  1  0.50000027  0.76910615  0.75257302  1
  C  C53  1  0.50000019  0.76094477  0.99876206  1
  C  C54  1  0.50000001  0.81792553  0.76799918  1
  C  C55  1  0.50000001  0.80753122  1.01397241  1
  H  H56  1  0.49999983  0.88371182  0.68059666  1
  H  H57  1  0.49999989  0.87188642  0.91527082  1
  H  H58  1  0.49999951  0.11587898  0.59392558  1
  H  H59  1  0.50000041  0.12702229  0.79834078  1
  H  H60  1  0.50000002  0.83720126  0.55493305  1
  H  H61  1  0.49999782  0.15437649  0.45142164  1
  H  H62  1  0.50000069  0.20123649  0.16136199  1
  H  H63  1  0.50000189  0.20165139  0.39487533  1
  H  H64  1  0.50000383  0.50826621  0.16328313  1
  H  H65  1  0.50001880  0.50764142  0.38950686  1
  H  H66  1  0.49997990  0.54969061  0.45346760  1
  H  H67  1  0.49999305  0.62518987  0.48429677  1
  H  H68  1  0.50000134  0.68919248  0.50557202  1
  H  H69  1  0.50000016  0.76981793  0.53336189  1
  H  H70  1  0.50000048  0.16968624  0.00381677  1
  H  H71  1  0.50000187  0.53696653  0.00890503  1
  H  H72  1  0.49999998  0.59643653  0.03856559  1
  H  H73  1  0.49999982  0.67560596  0.06650136  1
  H  H74  1  0.50000023  0.74011754  0.08927846  1
  H  H75  1  0.49999997  0.82198696  0.11555448  1
