# generated using pymatgen
data_H9C26
_symmetry_space_group_name_H-M   'P 1'
_cell_length_a   10.00000000
_cell_length_b   29.89204000
_cell_length_c   9.93059910
_cell_angle_alpha   90.00000000
_cell_angle_beta   90.00000000
_cell_angle_gamma   90.00000000
_symmetry_Int_Tables_number   1
_chemical_formula_structural   H9C26
_chemical_formula_sum   'H18 C52'
_cell_volume   2968.45865610
_cell_formula_units_Z   2
loop_
 _symmetry_equiv_pos_site_id
 _symmetry_equiv_pos_as_xyz
  1  'x, y, z'
loop_
 _atom_site_type_symbol
 _atom_site_label
 _atom_site_symmetry_multiplicity
 _atom_site_fract_x
 _atom_site_fract_y
 _atom_site_fract_z
 _atom_site_occupancy
  C  C0  1  0.50000001  0.20221610  0.53699559  1
  C  C1  1  0.50000005  0.19367338  0.77833014  1
  C  C2  1  0.50000003  0.22206073  0.66276929  1
  C  C3  1  0.49999993  0.21256427  0.90461679  1
  C  C4  1  0.50000002  0.27095867  0.68612628  1
  C  C5  1  0.49999981  0.25919737  0.92497553  1
  C  C6  1  0.50000005  0.29813889  0.57409118  1
  C  C7  1  0.49999994  0.29115305  0.81893348  1
  C  C8  1  0.50000018  0.34646819  0.08316707  1
  C  C9  1  0.50000007  0.34686871  0.32918708  1
  C  C10  1  0.50000002  0.34447622  0.57946707  1
  C  C11  1  0.49999999  0.34058785  0.82903913  1
  C  C12  1  0.50000010  0.36994731  0.20574592  1
  C  C13  1  0.50000003  0.36876074  0.45324444  1
  C  C14  1  0.50000000  0.36662882  0.70740715  1
  C  C15  1  0.50000006  0.36620322  0.95582303  1
  C  C16  1  0.50000007  0.41729941  0.20565789  1
  C  C17  1  0.50000004  0.41646007  0.45614937  1
  C  C18  1  0.50000003  0.41535495  0.70743512  1
  C  C19  1  0.50000004  0.41491344  0.95502361  1
  C  C20  1  0.50000007  0.43951267  0.07877661  1
  C  C21  1  0.50000007  0.43994933  0.33206589  1
  C  C22  1  0.50000004  0.43969663  0.58287004  1
  C  C23  1  0.50000006  0.43944187  0.83110697  1
  C  C24  1  0.50000009  0.48748237  0.07923040  1
  C  C25  1  0.50000009  0.48732243  0.33260362  1
  C  C26  1  0.50000003  0.48772772  0.58330943  1
  C  C27  1  0.50000010  0.48776575  0.83139579  1
  C  C28  1  0.50000007  0.50974275  0.20634356  1
  C  C29  1  0.50000004  0.51102235  0.45682935  1
  C  C30  1  0.50000003  0.51202750  0.70813600  1
  C  C31  1  0.50000010  0.51204597  0.95579427  1
  C  C32  1  0.49999966  0.55696977  0.20727122  1
  C  C33  1  0.49999994  0.55881700  0.45467200  1
  C  C34  1  0.50000003  0.56076358  0.70900141  1
  C  C35  1  0.49999981  0.56065796  0.95752798  1
  C  C36  1  0.49999913  0.58025475  0.08490311  1
  C  C37  1  0.49999968  0.58037087  0.33056491  1
  C  C38  1  0.49999999  0.58338731  0.58164499  1
  C  C39  1  0.50000003  0.58644715  0.83112798  1
  C  C40  1  0.49999987  0.62966514  0.57793385  1
  C  C41  1  0.50000025  0.63555045  0.82273466  1
  C  C42  1  0.49999993  0.65668887  0.69220063  1
  C  C43  1  0.50000095  0.66692469  0.93166879  1
  C  C44  1  0.49999988  0.70543364  0.67418842  1
  C  C45  1  0.50000041  0.71274130  0.91576836  1
  C  C46  1  0.50000000  0.72598796  0.54575066  1
  C  C47  1  0.49999982  0.73382813  0.78942111  1
  C  C48  1  0.50000001  0.77275221  0.53166631  1
  C  C49  1  0.49999978  0.78264589  0.77663132  1
  C  C50  1  0.49999990  0.80062324  0.64289297  1
  C  C51  1  0.49999976  0.81146005  0.88593391  1
  H  H52  1  0.49999999  0.16561290  0.53063308  1
  H  H53  1  0.50000013  0.15732107  0.76417185  1
  H  H54  1  0.49999999  0.83708466  0.63055119  1
  H  H55  1  0.49999979  0.84769577  0.86908205  1
  H  H56  1  0.49999992  0.22026495  0.44119771  1
  H  H57  1  0.50000010  0.28201035  0.47620076  1
  H  H58  1  0.50000041  0.31071578  0.09557831  1
  H  H59  1  0.50000009  0.31037930  0.32246789  1
  H  H60  1  0.49999771  0.61584102  0.09829756  1
  H  H61  1  0.49999959  0.61685808  0.32341517  1
  H  H62  1  0.49999978  0.64592555  0.48024974  1
  H  H63  1  0.50000009  0.70598434  0.45369628  1
  H  H64  1  0.50000013  0.78728008  0.43023645  1
  H  H65  1  0.49999985  0.19094328  -0.00621843  1
  H  H66  1  0.49999947  0.26820147  0.03019499  1
  H  H67  1  0.50000247  0.65726681  0.03607141  1
  H  H68  1  0.50000075  0.73310110  0.00740095  1
  H  H69  1  0.49999965  0.80007728  -0.00937866  1
