# generated using pymatgen
data_HC2
_symmetry_space_group_name_H-M   'P 1'
_cell_length_a   10.00000000
_cell_length_b   21.36688000
_cell_length_c   9.92746340
_cell_angle_alpha   90.00000000
_cell_angle_beta   90.00000000
_cell_angle_gamma   90.00000000
_symmetry_Int_Tables_number   1
_chemical_formula_structural   HC2
_chemical_formula_sum   'H16 C32'
_cell_volume   2121.18919154
_cell_formula_units_Z   16
loop_
 _symmetry_equiv_pos_site_id
 _symmetry_equiv_pos_as_xyz
  1  'x, y, z'
loop_
 _atom_site_type_symbol
 _atom_site_label
 _atom_site_symmetry_multiplicity
 _atom_site_fract_x
 _atom_site_fract_y
 _atom_site_fract_z
 _atom_site_occupancy
  C  C0  1  0.50000092  0.76489451  0.50476321  1
  C  C1  1  0.50000340  0.77392500  0.74908743  1
  C  C2  1  0.49999909  0.22854476  0.08962900  1
  C  C3  1  0.49999927  0.22568799  0.34520927  1
  C  C4  1  0.50000022  0.23041191  0.59686708  1
  C  C5  1  0.50000031  0.23202075  0.84346357  1
  C  C6  1  0.49999937  0.25651207  0.21856166  1
  C  C7  1  0.49999998  0.25933463  0.46856995  1
  C  C8  1  0.50000022  0.26401739  0.71990059  1
  C  C9  1  0.49999962  0.26366208  0.96808446  1
  C  C10  1  0.50000063  0.32382525  0.21927411  1
  C  C11  1  0.50000038  0.32713138  0.46603450  1
  C  C12  1  0.49999975  0.33243475  0.72023935  1
  C  C13  1  0.49999988  0.33233867  0.96964089  1
  C  C14  1  0.50000129  0.35810117  0.09836874  1
  C  C15  1  0.50000091  0.35672604  0.34189335  1
  C  C16  1  0.50000016  0.36261236  0.59176757  1
  C  C17  1  0.49999928  0.36815368  0.84224152  1
  C  C18  1  0.50000024  0.42753478  0.58612086  1
  C  C19  1  0.49999830  0.43670513  0.83140937  1
  C  C20  1  0.49999935  0.46563848  0.70016346  1
  C  C21  1  0.49999600  0.48079570  0.93976199  1
  C  C22  1  0.49999925  0.53360172  0.68172280  1
  C  C23  1  0.49999660  0.54475436  0.92317053  1
  C  C24  1  0.49999973  0.56218587  0.55235838  1
  C  C25  1  0.49999871  0.57395024  0.79532563  1
  C  C26  1  0.50000016  0.62647401  0.53692471  1
  C  C27  1  0.49999965  0.64153397  0.78028302  1
  C  C28  1  0.50000034  0.66790555  0.64778424  1
  C  C29  1  0.50000036  0.68211815  0.89295972  1
  C  C30  1  0.50000159  0.73611193  0.62982252  1
  C  C31  1  0.50000254  0.74726623  0.87630581  1
  H  H32  1  0.50000256  0.81605055  0.49773195  1
  H  H33  1  0.50000520  0.82495809  0.73732390  1
  H  H34  1  0.49999832  0.17733186  0.08148570  1
  H  H35  1  0.49999887  0.17433242  0.34858614  1
  H  H36  1  0.50000041  0.17906093  0.60152682  1
  H  H37  1  0.50000098  0.18068333  0.84346992  1
  H  H38  1  0.49999871  0.73891859  0.40995645  1
  H  H39  1  0.50000370  0.40795278  0.11480568  1
  H  H40  1  0.50000119  0.40777357  0.33446407  1
  H  H41  1  0.50000098  0.45004658  0.48816545  1
  H  H42  1  0.49999974  0.53384297  0.46065051  1
  H  H43  1  0.50000079  0.64562589  0.43462342  1
  H  H44  1  0.49999294  0.46664362  0.04403038  1
  H  H45  1  0.49999486  0.57329287  0.01448884  1
  H  H46  1  0.49999967  0.66322562  -0.00470179  1
  H  H47  1  0.50000357  0.77739195  -0.03431668  1
