# generated using pymatgen
data_HC2
_symmetry_space_group_name_H-M   'P 1'
_cell_length_a   10.00000000
_cell_length_b   29.89204000
_cell_length_c   9.98902801
_cell_angle_alpha   90.00000000
_cell_angle_beta   90.00000000
_cell_angle_gamma   90.00000000
_symmetry_Int_Tables_number   1
_chemical_formula_structural   HC2
_chemical_formula_sum   'H24 C48'
_cell_volume   2985.92424922
_cell_formula_units_Z   24
loop_
 _symmetry_equiv_pos_site_id
 _symmetry_equiv_pos_as_xyz
  1  'x, y, z'
loop_
 _atom_site_type_symbol
 _atom_site_label
 _atom_site_symmetry_multiplicity
 _atom_site_fract_x
 _atom_site_fract_y
 _atom_site_fract_z
 _atom_site_occupancy
  C  C0  1  0.50000044  0.84105465  0.56783799  1
  C  C1  1  0.49999983  0.84031087  0.81081022  1
  C  C2  1  0.50000001  0.14869188  0.58149400  1
  C  C3  1  0.50000003  0.16240254  0.81047748  1
  C  C4  1  0.49999997  0.18198984  0.67865912  1
  C  C5  1  0.50000012  0.18679566  0.92476275  1
  C  C6  1  0.49999994  0.23405028  0.17164808  1
  C  C7  1  0.49999995  0.23477897  0.42212029  1
  C  C8  1  0.49999999  0.23169445  0.67225543  1
  C  C9  1  0.50000002  0.23423861  0.92236897  1
  C  C10  1  0.49999996  0.25737678  0.04920497  1
  C  C11  1  0.49999998  0.25610515  0.29617082  1
  C  C12  1  0.50000000  0.25665942  0.54702178  1
  C  C13  1  0.50000000  0.25691929  0.79499961  1
  C  C14  1  0.49999994  0.30559616  0.04968639  1
  C  C15  1  0.49999995  0.30356805  0.29575031  1
  C  C16  1  0.50000000  0.30574425  0.54651833  1
  C  C17  1  0.50000000  0.30623856  0.79473622  1
  C  C18  1  0.49999991  0.32719745  0.17307880  1
  C  C19  1  0.49999990  0.32553112  0.41941384  1
  C  C20  1  0.50000004  0.33157399  0.67279878  1
  C  C21  1  0.49999995  0.32974922  0.92135087  1
  C  C22  1  0.50000007  0.38067419  0.68014017  1
  C  C23  1  0.49999986  0.37642972  0.92322888  1
  C  C24  1  0.50000032  0.41060313  0.56862944  1
  C  C25  1  0.49999990  0.40327860  0.80794496  1
  C  C26  1  0.50000003  0.45614258  0.57721070  1
  C  C27  1  0.49999989  0.45251155  0.81822121  1
  C  C28  1  0.49999981  0.47906057  0.70027568  1
  C  C29  1  0.50000007  0.47701810  0.94104025  1
  C  C30  1  0.49999986  0.52721843  0.70255977  1
  C  C31  1  0.50000025  0.52338522  0.94450335  1
  C  C32  1  0.49999958  0.55220697  0.58129740  1
  C  C33  1  0.50000018  0.55042845  0.82654324  1
  C  C34  1  0.49999984  0.59800563  0.58126958  1
  C  C35  1  0.50000015  0.59913058  0.82621242  1
  C  C36  1  0.50000015  0.62297155  0.70231378  1
  C  C37  1  0.49999994  0.62509087  0.94565605  1
  C  C38  1  0.50000012  0.67137967  0.69946487  1
  C  C39  1  0.49999982  0.67124376  0.94323893  1
  C  C40  1  0.50000011  0.69554505  0.57661102  1
  C  C41  1  0.49999987  0.69609531  0.82140411  1
  C  C42  1  0.49999993  0.74163751  0.57343043  1
  C  C43  1  0.49999993  0.74488898  0.81802575  1
  C  C44  1  0.50000003  0.76763137  0.69169479  1
  C  C45  1  0.49999992  0.77087626  0.93656836  1
  C  C46  1  0.50000008  0.81670502  0.68605329  1
  C  C47  1  0.49999983  0.81775943  0.93193277  1
  H  H48  1  0.50000026  0.87770125  0.57176020  1
  H  H49  1  0.49999974  0.87697793  0.80805867  1
  H  H50  1  0.50000006  0.11404580  0.61796488  1
  H  H51  1  0.50000006  0.12580669  0.81680297  1
  H  H52  1  0.50000095  0.82584376  0.46831404  1
  H  H53  1  0.50000000  0.15124492  0.47315821  1
  H  H54  1  0.49999985  0.19753421  0.17405832  1
  H  H55  1  0.49999989  0.19872873  0.41905516  1
  H  H56  1  0.49999989  0.36373664  0.17894948  1
  H  H57  1  0.49999966  0.36097704  0.40632105  1
  H  H58  1  0.50000105  0.40012164  0.46610748  1
  H  H59  1  0.50000024  0.47438631  0.48260814  1
  H  H60  1  0.49999922  0.53513976  0.48469171  1
  H  H61  1  0.49999970  0.61511584  0.48472619  1
  H  H62  1  0.50000006  0.67757773  0.48135886  1
  H  H63  1  0.49999950  0.75833120  0.47595711  1
  H  H64  1  0.50000026  0.16889712  0.01980575  1
  H  H65  1  0.49999974  0.39314041  0.02015926  1
  H  H66  1  0.50000004  0.45934618  0.03706010  1
  H  H67  1  0.50000053  0.53959152  0.04273723  1
  H  H68  1  0.49999996  0.60812921  0.04273334  1
  H  H69  1  0.49999991  0.68893060  0.03910548  1
  H  H70  1  0.50000021  0.75445770  0.03427226  1
  H  H71  1  0.49999976  0.83686210  0.02559783  1
