# generated using pymatgen
data_H2C5
_symmetry_space_group_name_H-M   'P 1'
_cell_length_a   10.00000000
_cell_length_b   25.62946000
_cell_length_c   9.93857221
_cell_angle_alpha   90.00000000
_cell_angle_beta   90.00000000
_cell_angle_gamma   90.00000000
_symmetry_Int_Tables_number   1
_chemical_formula_structural   H2C5
_chemical_formula_sum   'H16 C40'
_cell_volume   2547.20238937
_cell_formula_units_Z   8
loop_
 _symmetry_equiv_pos_site_id
 _symmetry_equiv_pos_as_xyz
  1  'x, y, z'
loop_
 _atom_site_type_symbol
 _atom_site_label
 _atom_site_symmetry_multiplicity
 _atom_site_fract_x
 _atom_site_fract_y
 _atom_site_fract_z
 _atom_site_occupancy
  C  C0  1  0.50000090  0.21940454  0.62861711  1
  C  C1  1  0.49999963  0.23384124  0.87059745  1
  C  C2  1  0.50000057  0.25388046  0.73594472  1
  C  C3  1  0.49999918  0.26701480  0.98026355  1
  C  C4  1  0.50000059  0.31082325  0.72055451  1
  C  C5  1  0.49999973  0.32142962  0.96384545  1
  C  C6  1  0.49999860  0.33515295  0.59386964  1
  C  C7  1  0.50000036  0.34455703  0.83456984  1
  C  C8  1  0.49999663  0.38863028  0.57610625  1
  C  C9  1  0.50000023  0.40137166  0.81466301  1
  C  C10  1  0.49999919  0.42581066  0.68374441  1
  C  C11  1  0.50000036  0.43316584  0.92811968  1
  C  C12  1  0.50000126  0.49013330  0.17460528  1
  C  C13  1  0.50000350  0.49025987  0.42138733  1
  C  C14  1  0.49999991  0.48333924  0.67486986  1
  C  C15  1  0.49999989  0.48713474  0.92410008  1
  C  C16  1  0.49999991  0.51556893  0.05095579  1
  C  C17  1  0.50000076  0.51703705  0.29850883  1
  C  C18  1  0.50000051  0.51359171  0.54853872  1
  C  C19  1  0.49999977  0.51347492  0.79672019  1
  C  C20  1  0.49999915  0.57144821  0.04848105  1
  C  C21  1  0.49999867  0.57220803  0.29895319  1
  C  C22  1  0.49999886  0.57051080  0.55003798  1
  C  C23  1  0.49999944  0.57047931  0.79745710  1
  C  C24  1  0.49999866  0.59849437  0.17341269  1
  C  C25  1  0.49999873  0.59849398  0.42507874  1
  C  C26  1  0.49999886  0.59905917  0.67481826  1
  C  C27  1  0.49999928  0.59879085  0.92234374  1
  C  C28  1  0.49999926  0.65394436  0.17379532  1
  C  C29  1  0.49999922  0.65465638  0.42312432  1
  C  C30  1  0.49999911  0.65604148  0.67532509  1
  C  C31  1  0.49999944  0.65546731  0.92374046  1
  C  C32  1  0.49999992  0.68020958  0.05005926  1
  C  C33  1  0.49999963  0.68038998  0.29827525  1
  C  C34  1  0.49999972  0.68267205  0.54816628  1
  C  C35  1  0.49999955  0.68497326  0.79937377  1
  C  C36  1  0.50000150  0.73805549  0.54622455  1
  C  C37  1  0.50000058  0.74287546  0.79419157  1
  C  C38  1  0.50000230  0.76610424  0.66185975  1
  C  C39  1  0.50000003  0.78113584  0.89313285  1
  H  H40  1  0.50000047  0.17724555  0.64741037  1
  H  H41  1  0.49999931  0.19143115  0.88495080  1
  H  H42  1  0.50000353  0.80881614  0.65667875  1
  H  H43  1  0.50000199  0.82174161  0.85818376  1
  H  H44  1  0.50000156  0.23197607  0.52348058  1
  H  H45  1  0.49999743  0.31111660  0.50282192  1
  H  H46  1  0.49999088  0.39923190  0.47105098  1
  H  H47  1  0.50000251  0.44754370  0.18074364  1
  H  H48  1  0.50000994  0.44859596  0.40977476  1
  H  H49  1  0.50000125  0.72218268  0.05620193  1
  H  H50  1  0.50000009  0.72300147  0.29414793  1
  H  H51  1  0.50000224  0.75914687  0.45086619  1
  H  H52  1  0.49999831  0.25077914  0.08232572  1
  H  H53  1  0.49999944  0.34513723  0.05510581  1
  H  H54  1  0.50000036  0.41439581  0.02592395  1
  H  H55  1  0.49999731  0.77760406  0.00189997  1
