# generated using pymatgen
data_H7C26
_symmetry_space_group_name_H-M   'P 1'
_cell_length_a   10.00000000
_cell_length_b   25.62946000
_cell_length_c   9.91050974
_cell_angle_alpha   90.00000000
_cell_angle_beta   90.00000000
_cell_angle_gamma   90.00000000
_symmetry_Int_Tables_number   1
_chemical_formula_structural   H7C26
_chemical_formula_sum   'H14 C52'
_cell_volume   2540.01012924
_cell_formula_units_Z   2
loop_
 _symmetry_equiv_pos_site_id
 _symmetry_equiv_pos_as_xyz
  1  'x, y, z'
loop_
 _atom_site_type_symbol
 _atom_site_label
 _atom_site_symmetry_multiplicity
 _atom_site_fract_x
 _atom_site_fract_y
 _atom_site_fract_z
 _atom_site_occupancy
  C  C0  1  0.49999860  0.80658738  0.52916866  1
  C  C1  1  0.49999925  0.81467564  0.77114635  1
  C  C2  1  0.50000094  0.17770776  0.59775748  1
  C  C3  1  0.50000186  0.19268039  0.83020502  1
  C  C4  1  0.50000079  0.21581985  0.69734163  1
  C  C5  1  0.50000115  0.22085618  0.94618811  1
  C  C6  1  0.49999968  0.27930239  0.19336309  1
  C  C7  1  0.49999983  0.27911457  0.43961896  1
  C  C8  1  0.49999991  0.27357696  0.69145890  1
  C  C9  1  0.49999986  0.27624988  0.94362199  1
  C  C10  1  0.49999951  0.30477341  0.06851047  1
  C  C11  1  0.49999976  0.30634449  0.31673737  1
  C  C12  1  0.49999980  0.30306655  0.56650438  1
  C  C13  1  0.49999957  0.30248433  0.81577754  1
  C  C14  1  0.49999947  0.36076147  0.06667881  1
  C  C15  1  0.49999987  0.36186911  0.31685264  1
  C  C16  1  0.49999996  0.35963996  0.56764587  1
  C  C17  1  0.49999959  0.35925385  0.81601646  1
  C  C18  1  0.49999980  0.38870549  0.19105984  1
  C  C19  1  0.50000014  0.38813194  0.44318981  1
  C  C20  1  0.49999999  0.38756884  0.69219533  1
  C  C21  1  0.49999968  0.38764089  0.94066127  1
  C  C22  1  0.50000013  0.44424127  0.19082835  1
  C  C23  1  0.50000037  0.44392874  0.44313889  1
  C  C24  1  0.50000036  0.44382730  0.69238053  1
  C  C25  1  0.50000008  0.44361709  0.94055733  1
  C  C26  1  0.50000022  0.47151222  0.06509997  1
  C  C27  1  0.50000031  0.47099260  0.31742605  1
  C  C28  1  0.50000049  0.47196890  0.56801360  1
  C  C29  1  0.50000031  0.47195516  0.81637080  1
  C  C30  1  0.50000026  0.52738763  0.06468785  1
  C  C31  1  0.50000027  0.52648687  0.31730097  1
  C  C32  1  0.50000038  0.52796518  0.56786525  1
  C  C33  1  0.50000028  0.52822579  0.81622007  1
  C  C34  1  0.50000023  0.55321356  0.19155032  1
  C  C35  1  0.50000022  0.55465719  0.44137139  1
  C  C36  1  0.50000024  0.55644246  0.69247634  1
  C  C37  1  0.50000014  0.55635191  0.94063922  1
  C  C38  1  0.50000029  0.60843012  0.19178989  1
  C  C39  1  0.50000002  0.61047099  0.43899901  1
  C  C40  1  0.49999982  0.61327908  0.69295440  1
  C  C41  1  0.50000000  0.61313054  0.94176043  1
  C  C42  1  0.50000027  0.63592341  0.06957745  1
  C  C43  1  0.50000024  0.63571489  0.31478994  1
  C  C44  1  0.49999959  0.63935573  0.56505859  1
  C  C45  1  0.49999966  0.64330896  0.81538908  1
  C  C46  1  0.49999925  0.69363492  0.56063476  1
  C  C47  1  0.49999937  0.70097038  0.80660651  1
  C  C48  1  0.49999911  0.72506464  0.67398967  1
  C  C49  1  0.49999938  0.73753642  0.91444633  1
  C  C50  1  0.49999893  0.78234978  0.65373029  1
  C  C51  1  0.49999940  0.79201386  0.89680308  1
  H  H52  1  0.49999859  0.84932846  0.52511551  1
  H  H53  1  0.49999928  0.85715787  0.75886041  1
  H  H54  1  0.50000187  0.13699072  0.63194276  1
  H  H55  1  0.50000313  0.14995728  0.83553937  1
  H  H56  1  0.49999827  0.78627243  0.43221661  1
  H  H57  1  0.50000011  0.18190710  0.48885868  1
  H  H58  1  0.49999979  0.23674091  0.19895449  1
  H  H59  1  0.50000000  0.23717648  0.43129693  1
  H  H60  1  0.50000042  0.67750643  0.08309318  1
  H  H61  1  0.50000031  0.67825270  0.30809448  1
  H  H62  1  0.49999906  0.71285929  0.46283899  1
  H  H63  1  0.50000177  0.19992836  0.04209160  1
  H  H64  1  0.49999925  0.72652283  0.01943749  1
  H  H65  1  0.49999955  0.81652552  -0.01249688  1
