# generated using pymatgen
data_HC2
_symmetry_space_group_name_H-M   'P 1'
_cell_length_a   10.00000000
_cell_length_b   17.10430000
_cell_length_c   9.90840789
_cell_angle_alpha   90.00000000
_cell_angle_beta   90.00000000
_cell_angle_gamma   90.00000000
_symmetry_Int_Tables_number   1
_chemical_formula_structural   HC2
_chemical_formula_sum   'H12 C24'
_cell_volume   1694.76381010
_cell_formula_units_Z   12
loop_
 _symmetry_equiv_pos_site_id
 _symmetry_equiv_pos_as_xyz
  1  'x, y, z'
loop_
 _atom_site_type_symbol
 _atom_site_label
 _atom_site_symmetry_multiplicity
 _atom_site_fract_x
 _atom_site_fract_y
 _atom_site_fract_z
 _atom_site_occupancy
  C  C0  1  0.49999997  0.70663947  0.53599941  1
  C  C1  1  0.50000002  0.71845584  0.77830008  1
  C  C2  1  0.50000000  0.28750254  0.07109795  1
  C  C3  1  0.50000000  0.28404927  0.32668801  1
  C  C4  1  0.50000000  0.28976595  0.57840075  1
  C  C5  1  0.50000000  0.29192989  0.82483152  1
  C  C6  1  0.50000000  0.32248261  0.19992844  1
  C  C7  1  0.50000000  0.32592993  0.45017588  1
  C  C8  1  0.49999999  0.33193685  0.70102187  1
  C  C9  1  0.49999999  0.33136297  0.94923242  1
  C  C10  1  0.50000001  0.40676946  0.20062800  1
  C  C11  1  0.50000000  0.41081931  0.44794954  1
  C  C12  1  0.49999999  0.41742257  0.70125991  1
  C  C13  1  0.49999999  0.41725070  0.95060225  1
  C  C14  1  0.50000002  0.44956058  0.07951702  1
  C  C15  1  0.50000001  0.44776312  0.32309933  1
  C  C16  1  0.50000000  0.45493743  0.57267198  1
  C  C17  1  0.49999999  0.46188944  0.82369552  1
  C  C18  1  0.50000001  0.53677125  0.56727418  1
  C  C19  1  0.49999998  0.54838886  0.81354980  1
  C  C20  1  0.49999999  0.58400394  0.67987692  1
  C  C21  1  0.49999998  0.60240567  0.92082283  1
  C  C22  1  0.49999999  0.67016412  0.65999040  1
  C  C23  1  0.50000002  0.68440017  0.90345524  1
  H  H24  1  0.49999998  0.77067535  0.53191196  1
  H  H25  1  0.50000004  0.78219470  0.76667357  1
  H  H26  1  0.50000001  0.22352700  0.06245423  1
  H  H27  1  0.50000000  0.21992943  0.33025695  1
  H  H28  1  0.50000001  0.22569273  0.58415305  1
  H  H29  1  0.50000001  0.22780251  0.82478680  1
  H  H30  1  0.49999992  0.67606730  0.43903996  1
  H  H31  1  0.50000005  0.51183208  0.09617861  1
  H  H32  1  0.50000000  0.51149572  0.31569026  1
  H  H33  1  0.50000003  0.56526269  0.46922464  1
  H  H34  1  0.49999995  0.58490409  0.02538673  1
  H  H35  1  0.50000003  0.72117037  -0.00582597  1
