# generated using pymatgen
data_H9C26
_symmetry_space_group_name_H-M   'P 1'
_cell_length_a   10.00000000
_cell_length_b   29.89204000
_cell_length_c   9.92839715
_cell_angle_alpha   90.00000000
_cell_angle_beta   90.00000000
_cell_angle_gamma   90.00000000
_symmetry_Int_Tables_number   1
_chemical_formula_structural   H9C26
_chemical_formula_sum   'H18 C52'
_cell_volume   2967.80044666
_cell_formula_units_Z   2
loop_
 _symmetry_equiv_pos_site_id
 _symmetry_equiv_pos_as_xyz
  1  'x, y, z'
loop_
 _atom_site_type_symbol
 _atom_site_label
 _atom_site_symmetry_multiplicity
 _atom_site_fract_x
 _atom_site_fract_y
 _atom_site_fract_z
 _atom_site_occupancy
  C  C0  1  0.50000025  0.18853941  0.61468881  1
  C  C1  1  0.50000009  0.19949190  0.85780304  1
  C  C2  1  0.50000021  0.21738294  0.72390931  1
  C  C3  1  0.50000000  0.22743456  0.96893191  1
  C  C4  1  0.50000017  0.26617511  0.71088861  1
  C  C5  1  0.50000001  0.27420173  0.95475781  1
  C  C6  1  0.49999956  0.28722425  0.58443750  1
  C  C7  1  0.50000012  0.29459796  0.82606132  1
  C  C8  1  0.49999901  0.33303763  0.56841759  1
  C  C9  1  0.50000007  0.34332949  0.80789341  1
  C  C10  1  0.49999974  0.36445049  0.67730750  1
  C  C11  1  0.50000014  0.37039691  0.92216661  1
  C  C12  1  0.50000035  0.41962564  0.16938993  1
  C  C13  1  0.50000095  0.41971464  0.41501052  1
  C  C14  1  0.49999998  0.41352861  0.66884714  1
  C  C15  1  0.50000002  0.41666481  0.91835892  1
  C  C16  1  0.50000007  0.44119166  0.04529752  1
  C  C17  1  0.50000036  0.44301160  0.29263753  1
  C  C18  1  0.50000021  0.43931733  0.54240110  1
  C  C19  1  0.49999998  0.43925822  0.79089812  1
  C  C20  1  0.49999996  0.48895479  0.04296511  1
  C  C21  1  0.49999993  0.49026002  0.29352707  1
  C  C22  1  0.49999989  0.48792852  0.54408754  1
  C  C23  1  0.49999996  0.48796867  0.79162481  1
  C  C24  1  0.49999990  0.51268513  0.16724278  1
  C  C25  1  0.49999990  0.51250218  0.42066357  1
  C  C26  1  0.49999989  0.51226590  0.66836457  1
  C  C27  1  0.49999996  0.51226782  0.91645227  1
  C  C28  1  0.49999992  0.56005939  0.16783052  1
  C  C29  1  0.49999992  0.56047332  0.42116045  1
  C  C30  1  0.49999994  0.56058666  0.66883867  1
  C  C31  1  0.49999996  0.56031143  0.91694703  1
  C  C32  1  0.49999995  0.58355145  0.04365344  1
  C  C33  1  0.49999993  0.58267321  0.29422718  1
  C  C34  1  0.49999995  0.58506156  0.54492258  1
  C  C35  1  0.49999997  0.58467413  0.79245314  1
  C  C36  1  0.49999996  0.63123138  0.04656254  1
  C  C37  1  0.49999990  0.63000480  0.29407173  1
  C  C38  1  0.49999994  0.63377297  0.54397153  1
  C  C39  1  0.49999999  0.63340385  0.79236528  1
  C  C40  1  0.49999992  0.65308279  0.17063425  1
  C  C41  1  0.49999982  0.65349494  0.41658519  1
  C  C42  1  0.50000000  0.65941224  0.67070410  1
  C  C43  1  0.49999999  0.65551170  0.92033313  1
  C  C44  1  0.50000005  0.70880986  0.68092128  1
  C  C45  1  0.49999995  0.70184387  0.92578080  1
  C  C46  1  0.50000020  0.74071561  0.57476618  1
  C  C47  1  0.49999997  0.72902336  0.81372089  1
  C  C48  1  0.50000008  0.78734821  0.59510670  1
  C  C49  1  0.49999997  0.77790939  0.83696768  1
  C  C50  1  0.49999995  0.80626846  0.72135752  1
  C  C51  1  0.50000000  0.79773189  0.96278495  1
  H  H52  1  0.50000020  0.15233715  0.63183348  1
  H  H53  1  0.50000002  0.16304108  0.87021659  1
  H  H54  1  0.49999989  0.84260906  0.73571954  1
  H  H55  1  0.50000001  0.83431744  0.96920398  1
  H  H56  1  0.50000033  0.19989511  0.50994821  1
  H  H57  1  0.49999918  0.26681970  0.49291179  1
  H  H58  1  0.49999742  0.34270480  0.46390696  1
  H  H59  1  0.50000045  0.38313408  0.17652642  1
  H  H60  1  0.50000247  0.38410643  0.40138347  1
  H  H61  1  0.49999991  0.68955147  0.17746119  1
  H  H62  1  0.49999960  0.68923244  0.40409993  1
  H  H63  1  0.50000050  0.73172864  0.46953126  1
  H  H64  1  0.50000015  0.80899171  0.50603063  1
  H  H65  1  0.49999987  0.21293541  0.07038506  1
  H  H66  1  0.49999990  0.29425027  0.04680094  1
  H  H67  1  0.50000025  0.35414073  0.01992574  1
  H  H68  1  0.49999991  0.71790687  0.02375198  1
  H  H69  1  0.50000007  0.77973077  0.05866415  1
