# generated using pymatgen
data_H7C22
_symmetry_space_group_name_H-M   'P 1'
_cell_length_a   10.00000000
_cell_length_b   25.62946000
_cell_length_c   9.91422170
_cell_angle_alpha   90.00000000
_cell_angle_beta   90.00000000
_cell_angle_gamma   90.00000000
_symmetry_Int_Tables_number   1
_chemical_formula_structural   H7C22
_chemical_formula_sum   'H14 C44'
_cell_volume   2540.96148505
_cell_formula_units_Z   2
loop_
 _symmetry_equiv_pos_site_id
 _symmetry_equiv_pos_as_xyz
  1  'x, y, z'
loop_
 _atom_site_type_symbol
 _atom_site_label
 _atom_site_symmetry_multiplicity
 _atom_site_fract_x
 _atom_site_fract_y
 _atom_site_fract_z
 _atom_site_occupancy
  C  C0  1  0.50000114  0.21940369  0.58400262  1
  C  C1  1  0.50000188  0.23437236  0.81633022  1
  C  C2  1  0.50000147  0.25750546  0.68351926  1
  C  C3  1  0.50000097  0.26264352  0.93204152  1
  C  C4  1  0.49999928  0.32095040  0.17916724  1
  C  C5  1  0.49999973  0.32079095  0.42582631  1
  C  C6  1  0.50000088  0.31529639  0.67739169  1
  C  C7  1  0.50000030  0.31802135  0.92913006  1
  C  C8  1  0.49999972  0.34641894  0.05413807  1
  C  C9  1  0.49999950  0.34789319  0.30274376  1
  C  C10  1  0.50000031  0.34483985  0.55241994  1
  C  C11  1  0.50000055  0.34430111  0.80140866  1
  C  C12  1  0.49999986  0.40239933  0.05212598  1
  C  C13  1  0.49999982  0.40339105  0.30298786  1
  C  C14  1  0.50000018  0.40148693  0.55369410  1
  C  C15  1  0.50000025  0.40117063  0.80161965  1
  C  C16  1  0.49999989  0.42984578  0.17663791  1
  C  C17  1  0.50000003  0.42979835  0.42946632  1
  C  C18  1  0.50000016  0.42959516  0.67799365  1
  C  C19  1  0.50000006  0.42967757  0.92596394  1
  C  C20  1  0.50000001  0.48523415  0.17628862  1
  C  C21  1  0.50000000  0.48572901  0.42928897  1
  C  C22  1  0.49999989  0.48600873  0.67753868  1
  C  C23  1  0.49999991  0.48587806  0.92550430  1
  C  C24  1  0.49999998  0.51294442  0.05182309  1
  C  C25  1  0.50000011  0.51170805  0.30236017  1
  C  C26  1  0.49999983  0.51432248  0.55318611  1
  C  C27  1  0.49999975  0.51437223  0.80082585  1
  C  C28  1  0.50000014  0.56874149  0.05413387  1
  C  C29  1  0.50000026  0.56691549  0.30170669  1
  C  C30  1  0.49999973  0.57112813  0.55176855  1
  C  C31  1  0.49999950  0.57128024  0.80006526  1
  C  C32  1  0.50000044  0.59408867  0.17836834  1
  C  C33  1  0.50000020  0.59413075  0.42425726  1
  C  C34  1  0.49999927  0.60140082  0.67776117  1
  C  C35  1  0.49999980  0.59734503  0.92781883  1
  C  C36  1  0.49999894  0.65914643  0.68627359  1
  C  C37  1  0.49999988  0.65159558  0.93192420  1
  C  C38  1  0.49999899  0.69591934  0.57882629  1
  C  C39  1  0.49999912  0.68312299  0.81884696  1
  C  C40  1  0.49999926  0.75042987  0.59704862  1
  C  C41  1  0.49999912  0.74033972  0.83974529  1
  C  C42  1  0.49999937  0.77287258  0.72282937  1
  C  C43  1  0.49999895  0.76419173  0.96468088  1
  H  H44  1  0.50000148  0.17867150  0.61815354  1
  H  H45  1  0.50000265  0.19163163  0.82179933  1
  H  H46  1  0.49999957  0.81534162  0.73562844  1
  H  H47  1  0.49999925  0.80690735  0.96954283  1
  H  H48  1  0.50000036  0.22371313  0.47519407  1
  H  H49  1  0.49999915  0.27839745  0.18499354  1
  H  H50  1  0.49999951  0.27883981  0.41756227  1
  H  H51  1  0.50000056  0.63664716  0.18483861  1
  H  H52  1  0.50000065  0.63575193  0.41187878  1
  H  H53  1  0.49999888  0.68523062  0.47360656  1
  H  H54  1  0.49999939  0.77526490  0.50696094  1
  H  H55  1  0.50000085  0.24183485  0.02807674  1
  H  H56  1  0.50000063  0.67084569  0.02948365  1
  H  H57  1  0.49999864  0.74332743  0.06080097  1
