# generated using pymatgen
data_HC3
_symmetry_space_group_name_H-M   'P 1'
_cell_length_a   10.00000000
_cell_length_b   25.62946000
_cell_length_c   9.91394261
_cell_angle_alpha   90.00000000
_cell_angle_beta   90.00000000
_cell_angle_gamma   90.00000000
_symmetry_Int_Tables_number   1
_chemical_formula_structural   HC3
_chemical_formula_sum   'H16 C48'
_cell_volume   2540.88995527
_cell_formula_units_Z   16
loop_
 _symmetry_equiv_pos_site_id
 _symmetry_equiv_pos_as_xyz
  1  'x, y, z'
loop_
 _atom_site_type_symbol
 _atom_site_label
 _atom_site_symmetry_multiplicity
 _atom_site_fract_x
 _atom_site_fract_y
 _atom_site_fract_z
 _atom_site_occupancy
  C  C0  1  0.49999556  0.80658907  0.53849043  1
  C  C1  1  0.49999509  0.81510125  0.78052980  1
  C  C2  1  0.50000445  0.19341093  0.53849041  1
  C  C3  1  0.50000493  0.18489874  0.78052978  1
  C  C4  1  0.50000441  0.21730605  0.66336292  1
  C  C5  1  0.50000312  0.20743668  0.90633110  1
  C  C6  1  0.50000297  0.27455607  0.68396848  1
  C  C7  1  0.50000153  0.26192048  0.92422340  1
  C  C8  1  0.50000181  0.30607119  0.57083659  1
  C  C9  1  0.50000210  0.29859143  0.81649636  1
  C  C10  1  0.50000064  0.36361142  0.07861425  1
  C  C11  1  0.49999974  0.36365329  0.32443266  1
  C  C12  1  0.50000078  0.36030531  0.57511779  1
  C  C13  1  0.50000135  0.35630844  0.82505169  1
  C  C14  1  0.49999980  0.39086263  0.20117127  1
  C  C15  1  0.50000002  0.38891473  0.44883526  1
  C  C16  1  0.50000093  0.38642405  0.70285374  1
  C  C17  1  0.50000077  0.38655689  0.95113430  1
  C  C18  1  0.49999972  0.44606107  0.20051074  1
  C  C19  1  0.49999997  0.44470859  0.45126606  1
  C  C20  1  0.50000043  0.44335193  0.70220732  1
  C  C21  1  0.50000029  0.44337235  0.94968547  1
  C  C22  1  0.49999998  0.47202311  0.07345387  1
  C  C23  1  0.49999984  0.47233463  0.32689332  1
  C  C24  1  0.50000013  0.47191251  0.57769765  1
  C  C25  1  0.50000022  0.47175495  0.82549813  1
  C  C26  1  0.50000002  0.52797687  0.07345386  1
  C  C27  1  0.50000017  0.52766536  0.32689325  1
  C  C28  1  0.49999989  0.52808750  0.57769765  1
  C  C29  1  0.49999978  0.52824505  0.82549817  1
  C  C30  1  0.50000028  0.55393896  0.20051079  1
  C  C31  1  0.50000005  0.55529143  0.45126610  1
  C  C32  1  0.49999957  0.55664808  0.70220728  1
  C  C33  1  0.49999971  0.55662766  0.94968542  1
  C  C34  1  0.50000022  0.60913735  0.20117123  1
  C  C35  1  0.49999999  0.61108526  0.44883527  1
  C  C36  1  0.49999906  0.61357594  0.70285375  1
  C  C37  1  0.49999924  0.61344309  0.95113428  1
  C  C38  1  0.49999941  0.63638859  0.07861427  1
  C  C39  1  0.50000027  0.63634673  0.32443269  1
  C  C40  1  0.49999923  0.63969470  0.57511776  1
  C  C41  1  0.49999863  0.64369155  0.82505169  1
  C  C42  1  0.49999820  0.69392879  0.57083664  1
  C  C43  1  0.49999786  0.70140856  0.81649635  1
  C  C44  1  0.49999702  0.72544393  0.68396847  1
  C  C45  1  0.49999839  0.73807952  0.92422341  1
  C  C46  1  0.49999559  0.78269395  0.66336293  1
  C  C47  1  0.49999686  0.79256333  0.90633108  1
  H  H48  1  0.49999531  0.84930413  0.53347166  1
  H  H49  1  0.49999420  0.85756097  0.76803095  1
  H  H50  1  0.50000474  0.15069586  0.53347164  1
  H  H51  1  0.50000582  0.14243903  0.76803095  1
  H  H52  1  0.49999703  0.78581170  0.44215979  1
  H  H53  1  0.50000296  0.21418830  0.44215978  1
  H  H54  1  0.50000175  0.28692808  0.47305618  1
  H  H55  1  0.50000159  0.32200599  0.09146461  1
  H  H56  1  0.49999975  0.32109523  0.31725553  1
  H  H57  1  0.49999852  0.67799400  0.09146462  1
  H  H58  1  0.50000025  0.67890476  0.31725554  1
  H  H59  1  0.49999828  0.71307192  0.47305617  1
  H  H60  1  0.50000268  0.18269146  -0.00341434  1
  H  H61  1  0.49999906  0.27277921  0.02931305  1
  H  H62  1  0.50000075  0.72722079  0.02931304  1
  H  H63  1  0.49999730  0.81730855  -0.00341431  1
