# generated using pymatgen
data_HC2
_symmetry_space_group_name_H-M   'P 1'
_cell_length_a   10.00000000
_cell_length_b   25.62946000
_cell_length_c   9.92384898
_cell_angle_alpha   90.00000000
_cell_angle_beta   90.00000000
_cell_angle_gamma   90.00000000
_symmetry_Int_Tables_number   1
_chemical_formula_structural   HC2
_chemical_formula_sum   'H18 C36'
_cell_volume   2543.42890545
_cell_formula_units_Z   18
loop_
 _symmetry_equiv_pos_site_id
 _symmetry_equiv_pos_as_xyz
  1  'x, y, z'
loop_
 _atom_site_type_symbol
 _atom_site_label
 _atom_site_symmetry_multiplicity
 _atom_site_fract_x
 _atom_site_fract_y
 _atom_site_fract_z
 _atom_site_occupancy
  C  C0  1  0.50000399  0.23134523  0.10097997  1
  C  C1  1  0.50000398  0.22904486  0.35641750  1
  C  C2  1  0.50000322  0.23297731  0.60832625  1
  C  C3  1  0.50000460  0.23431216  0.85463714  1
  C  C4  1  0.50000177  0.25475929  0.22980534  1
  C  C5  1  0.50000159  0.25700113  0.47990830  1
  C  C6  1  0.50000198  0.26106065  0.73129255  1
  C  C7  1  0.50000288  0.26057011  0.97938808  1
  C  C8  1  0.49999416  0.31086781  0.23058427  1
  C  C9  1  0.49999728  0.31355402  0.47740324  1
  C  C10  1  0.49999878  0.31803829  0.73173369  1
  C  C11  1  0.49999642  0.31781671  0.98110695  1
  C  C12  1  0.49998719  0.33941591  0.10969538  1
  C  C13  1  0.49999298  0.33824587  0.35331332  1
  C  C14  1  0.49999636  0.34319384  0.60325647  1
  C  C15  1  0.49999744  0.34775524  0.85390453  1
  C  C16  1  0.49999172  0.39726165  0.59796919  1
  C  C17  1  0.49999774  0.40491266  0.84354008  1
  C  C18  1  0.49999266  0.42896872  0.71224602  1
  C  C19  1  0.50000548  0.44178731  0.95200296  1
  C  C20  1  0.49999137  0.48553329  0.69366491  1
  C  C21  1  0.49999943  0.49506158  0.93523216  1
  C  C22  1  0.49999245  0.50922125  0.56385434  1
  C  C23  1  0.49999174  0.51926995  0.80680628  1
  C  C24  1  0.49999379  0.56256673  0.54748927  1
  C  C25  1  0.49999230  0.57535933  0.79047702  1
  C  C26  1  0.49999421  0.59751216  0.65876792  1
  C  C27  1  0.49999368  0.60972744  0.90297035  1
  C  C28  1  0.49999875  0.65380425  0.64119404  1
  C  C29  1  0.49999850  0.66314576  0.88653152  1
  C  C30  1  0.50000121  0.67706220  0.51166935  1
  C  C31  1  0.50000194  0.68676015  0.75762523  1
  C  C32  1  0.50000798  0.73140136  0.49635857  1
  C  C33  1  0.50000904  0.74368564  0.74210537  1
  C  C34  1  0.50001219  0.76404109  0.60762975  1
  C  C35  1  0.50001277  0.77813868  0.84977793  1
  H  H36  1  0.50000631  0.18862658  0.09286535  1
  H  H37  1  0.50000738  0.18623810  0.35913714  1
  H  H38  1  0.50000547  0.19020159  0.61419969  1
  H  H39  1  0.50000694  0.19150058  0.85394585  1
  H  H40  1  0.50001753  0.80651927  0.59463864  1
  H  H41  1  0.50001855  0.82025362  0.83081688  1
  H  H42  1  0.49997036  0.38099419  0.12596131  1
  H  H43  1  0.49998982  0.38081073  0.34566884  1
  H  H44  1  0.49998818  0.41604119  0.49997162  1
  H  H45  1  0.49999416  0.48540015  0.47253185  1
  H  H46  1  0.49999580  0.57785237  0.44462086  1
  H  H47  1  0.49999808  0.65270280  0.42128470  1
  H  H48  1  0.50001000  0.74820579  0.39478419  1
  H  H49  1  0.50002253  0.42999940  0.05636983  1
  H  H50  1  0.50000481  0.51892626  0.02661605  1
  H  H51  1  0.49999144  0.59389777  0.00523829  1
  H  H52  1  0.50000008  0.68779040  -0.02345638  1
  H  H53  1  0.50000900  0.76570320  -0.04486000  1
