# generated using pymatgen
data_HC2
_symmetry_space_group_name_H-M   'P 1'
_cell_length_a   10.00000000
_cell_length_b   29.89204000
_cell_length_c   9.99565587
_cell_angle_alpha   90.00000000
_cell_angle_beta   90.00000000
_cell_angle_gamma   90.00000000
_symmetry_Int_Tables_number   1
_chemical_formula_structural   HC2
_chemical_formula_sum   'H22 C44'
_cell_volume   2987.90545015
_cell_formula_units_Z   22
loop_
 _symmetry_equiv_pos_site_id
 _symmetry_equiv_pos_as_xyz
  1  'x, y, z'
loop_
 _atom_site_type_symbol
 _atom_site_label
 _atom_site_symmetry_multiplicity
 _atom_site_fract_x
 _atom_site_fract_y
 _atom_site_fract_z
 _atom_site_occupancy
  C  C0  1  0.49999838  0.20013815  0.52419397  1
  C  C1  1  0.50000075  0.19517025  0.76676836  1
  C  C2  1  0.49999961  0.22160547  0.64701261  1
  C  C3  1  0.50000190  0.21473177  0.89241495  1
  C  C4  1  0.49999975  0.27044345  0.66231983  1
  C  C5  1  0.50000186  0.26136108  0.90647797  1
  C  C6  1  0.49999901  0.29973550  0.55116469  1
  C  C7  1  0.50000077  0.28980673  0.79305377  1
  C  C8  1  0.49999915  0.34575136  0.56507858  1
  C  C9  1  0.50000048  0.33811059  0.80621068  1
  C  C10  1  0.49999990  0.36670822  0.69299097  1
  C  C11  1  0.49999973  0.35937429  0.93228835  1
  C  C12  1  0.50000004  0.41535528  0.71047314  1
  C  C13  1  0.49999893  0.40500561  0.94775105  1
  C  C14  1  0.50000028  0.44237631  0.59651697  1
  C  C15  1  0.49999989  0.43668306  0.83971375  1
  C  C16  1  0.50000179  0.49153189  0.09852801  1
  C  C17  1  0.50000112  0.48958622  0.34647835  1
  C  C18  1  0.50000029  0.48865453  0.59884882  1
  C  C19  1  0.50000034  0.48595457  0.84740132  1
  C  C20  1  0.50000084  0.51289702  0.22349586  1
  C  C21  1  0.50000040  0.51192264  0.46921800  1
  C  C22  1  0.50000018  0.51160116  0.72621439  1
  C  C23  1  0.50000067  0.51218091  0.97286767  1
  C  C24  1  0.49999885  0.56027658  0.22350344  1
  C  C25  1  0.49999975  0.55978017  0.46923648  1
  C  C26  1  0.50000011  0.56078203  0.72608649  1
  C  C27  1  0.49999936  0.56141952  0.97276401  1
  C  C28  1  0.49999740  0.58210186  0.09868612  1
  C  C29  1  0.49999871  0.58278128  0.34741343  1
  C  C30  1  0.49999990  0.58305823  0.59828247  1
  C  C31  1  0.50000001  0.58710269  0.84634560  1
  C  C32  1  0.49999947  0.62917771  0.59390400  1
  C  C33  1  0.50000070  0.63646231  0.83615347  1
  C  C34  1  0.49999965  0.65681421  0.70553624  1
  C  C35  1  0.50000296  0.66903918  0.94139365  1
  C  C36  1  0.49999932  0.70519216  0.68225714  1
  C  C37  1  0.50000171  0.71477739  0.92091431  1
  C  C38  1  0.49999879  0.72386139  0.55197035  1
  C  C39  1  0.49999968  0.73480936  0.79351188  1
  C  C40  1  0.49999856  0.77031242  0.53195828  1
  C  C41  1  0.49999972  0.78345955  0.77429782  1
  C  C42  1  0.49999902  0.79958351  0.63916657  1
  C  C43  1  0.50000072  0.81393815  0.87864289  1
  H  H44  1  0.49999827  0.16350945  0.52018779  1
  H  H45  1  0.50000067  0.15865129  0.75663297  1
  H  H46  1  0.49999903  0.83584567  0.62253347  1
  H  H47  1  0.50000084  0.84988957  0.85699186  1
  H  H48  1  0.49999707  0.21792185  0.42865220  1
  H  H49  1  0.49999830  0.28575833  0.44991966  1
  H  H50  1  0.49999844  0.36575555  0.47354574  1
  H  H51  1  0.50000041  0.42597850  0.49959952  1
  H  H52  1  0.50000404  0.45582121  0.10668838  1
  H  H53  1  0.50000164  0.45301644  0.34077649  1
  H  H54  1  0.49999358  0.61795779  0.10675389  1
  H  H55  1  0.49999816  0.61934578  0.34344283  1
  H  H56  1  0.49999923  0.64497750  0.49650723  1
  H  H57  1  0.49999864  0.70264350  0.46303570  1
  H  H58  1  0.49999808  0.78340120  0.42945589  1
  H  H59  1  0.50000280  0.19360066  -0.01788777  1
  H  H60  1  0.50000286  0.27547241  0.00732666  1
  H  H61  1  0.49999904  0.33936234  0.02381545  1
  H  H62  1  0.49999653  0.41408964  0.05199211  1
  H  H63  1  0.50000727  0.66057665  0.04633690  1
  H  H64  1  0.50000301  0.73603495  0.01013168  1
  H  H65  1  0.50000163  0.80417229  -0.01594531  1
