# generated using pymatgen
data_HC3
_symmetry_space_group_name_H-M   'P 1'
_cell_length_a   10.00000000
_cell_length_b   25.62946000
_cell_length_c   9.91778807
_cell_angle_alpha   90.00000000
_cell_angle_beta   90.00000000
_cell_angle_gamma   90.00000000
_symmetry_Int_Tables_number   1
_chemical_formula_structural   HC3
_chemical_formula_sum   'H16 C48'
_cell_volume   2541.87552574
_cell_formula_units_Z   16
loop_
 _symmetry_equiv_pos_site_id
 _symmetry_equiv_pos_as_xyz
  1  'x, y, z'
loop_
 _atom_site_type_symbol
 _atom_site_label
 _atom_site_symmetry_multiplicity
 _atom_site_fract_x
 _atom_site_fract_y
 _atom_site_fract_z
 _atom_site_occupancy
  C  C0  1  0.49999862  0.82252454  0.62525475  1
  C  C1  1  0.50000041  0.80790487  0.86735665  1
  C  C2  1  0.50000167  0.17703409  0.57746229  1
  C  C3  1  0.49999973  0.19226041  0.80921051  1
  C  C4  1  0.50000033  0.21536162  0.67649972  1
  C  C5  1  0.49999951  0.22047438  0.92489802  1
  C  C6  1  0.49999899  0.27850898  0.17252084  1
  C  C7  1  0.49999871  0.27841808  0.41931136  1
  C  C8  1  0.49999985  0.27311234  0.67064808  1
  C  C9  1  0.49999970  0.27579047  0.92230682  1
  C  C10  1  0.49999956  0.30402787  0.04756573  1
  C  C11  1  0.49999912  0.30546660  0.29611844  1
  C  C12  1  0.49999953  0.30258574  0.54569269  1
  C  C13  1  0.49999987  0.30207685  0.79470745  1
  C  C14  1  0.49999993  0.35997931  0.04563184  1
  C  C15  1  0.49999972  0.36096010  0.29645829  1
  C  C16  1  0.50000005  0.35911931  0.54707227  1
  C  C17  1  0.50000007  0.35892944  0.79505943  1
  C  C18  1  0.50000008  0.38737922  0.17009439  1
  C  C19  1  0.50000012  0.38736353  0.42294361  1
  C  C20  1  0.50000032  0.38725621  0.67138018  1
  C  C21  1  0.50000010  0.38731791  0.91943827  1
  C  C22  1  0.50000052  0.44275711  0.16978475  1
  C  C23  1  0.50000059  0.44329601  0.42275403  1
  C  C24  1  0.50000051  0.44363030  0.67090668  1
  C  C25  1  0.50000009  0.44342566  0.91894860  1
  C  C26  1  0.50000027  0.47050519  0.04539160  1
  C  C27  1  0.50000078  0.46920798  0.29579354  1
  C  C28  1  0.50000065  0.47194354  0.54648164  1
  C  C29  1  0.50000010  0.47191118  0.79427371  1
  C  C30  1  0.50000016  0.52621441  0.04785657  1
  C  C31  1  0.50000008  0.52434425  0.29506900  1
  C  C32  1  0.49999980  0.52869685  0.54493502  1
  C  C33  1  0.49999994  0.52875474  0.79344941  1
  C  C34  1  0.50000001  0.55153754  0.17176659  1
  C  C35  1  0.49999828  0.55160880  0.41749959  1
  C  C36  1  0.50000002  0.55889689  0.67142492  1
  C  C37  1  0.49999988  0.55491091  0.92116396  1
  C  C38  1  0.50000052  0.61621965  0.68040889  1
  C  C39  1  0.49999944  0.60884499  0.92542020  1
  C  C40  1  0.50000251  0.65328411  0.57213980  1
  C  C41  1  0.49999966  0.64058953  0.81155206  1
  C  C42  1  0.50000134  0.70674415  0.58963997  1
  C  C43  1  0.49999950  0.69730089  0.83120648  1
  C  C44  1  0.49999964  0.73095934  0.71686913  1
  C  C45  1  0.49999965  0.72035319  0.96089934  1
  C  C46  1  0.49999953  0.78783934  0.73241959  1
  C  C47  1  0.50000036  0.77476000  0.97741651  1
  H  H48  1  0.49999873  0.86456117  0.64561518  1
  H  H49  1  0.50000097  0.85035423  0.88139641  1
  H  H50  1  0.50000176  0.13654074  0.61327193  1
  H  H51  1  0.49999976  0.14957078  0.81428775  1
  H  H52  1  0.49999748  0.81059629  0.51936130  1
  H  H53  1  0.50000324  0.18059494  0.46843334  1
  H  H54  1  0.49999856  0.23594522  0.17826940  1
  H  H55  1  0.49999738  0.23645465  0.41164439  1
  H  H56  1  0.50000001  0.59408924  0.17862481  1
  H  H57  1  0.49999417  0.59317994  0.40459366  1
  H  H58  1  0.50000672  0.64234593  0.46709857  1
  H  H59  1  0.50000279  0.73084468  0.49857455  1
  H  H60  1  0.49999917  0.19955080  0.02063291  1
  H  H61  1  0.49999920  0.62761316  0.02343933  1
  H  H62  1  0.49999944  0.69642009  0.05202450  1
  H  H63  1  0.50000082  0.79105587  0.07962877  1
