# generated using pymatgen
data_HC2
_symmetry_space_group_name_H-M   'P 1'
_cell_length_a   10.00000000
_cell_length_b   29.89204000
_cell_length_c   9.89854667
_cell_angle_alpha   90.00000000
_cell_angle_beta   90.00000000
_cell_angle_gamma   90.00000000
_symmetry_Int_Tables_number   1
_chemical_formula_structural   HC2
_chemical_formula_sum   'H24 C48'
_cell_volume   2958.87752902
_cell_formula_units_Z   24
loop_
 _symmetry_equiv_pos_site_id
 _symmetry_equiv_pos_as_xyz
  1  'x, y, z'
loop_
 _atom_site_type_symbol
 _atom_site_label
 _atom_site_symmetry_multiplicity
 _atom_site_fract_x
 _atom_site_fract_y
 _atom_site_fract_z
 _atom_site_occupancy
  C  C0  1  0.50000028  0.84380072  0.56923748  1
  C  C1  1  0.49999987  0.83815364  0.81384086  1
  C  C2  1  0.50000001  0.15894666  0.07812152  1
  C  C3  1  0.50000001  0.15769590  0.33487835  1
  C  C4  1  0.49999999  0.16171134  0.58515539  1
  C  C5  1  0.50000003  0.16221562  0.83053235  1
  C  C6  1  0.50000001  0.17909072  0.20734795  1
  C  C7  1  0.50000000  0.18245259  0.45720634  1
  C  C8  1  0.50000001  0.18574425  0.70787886  1
  C  C9  1  0.50000005  0.18412978  0.95628264  1
  C  C10  1  0.49999992  0.22714735  0.20804874  1
  C  C11  1  0.49999999  0.23109492  0.45471258  1
  C  C12  1  0.50000005  0.23460872  0.70821215  1
  C  C13  1  0.50000001  0.23318313  0.95803711  1
  C  C14  1  0.49999978  0.25133638  0.08707780  1
  C  C15  1  0.49999993  0.25154644  0.32965095  1
  C  C16  1  0.50000000  0.25698196  0.58034713  1
  C  C17  1  0.50000009  0.25934845  0.83147129  1
  C  C18  1  0.49999993  0.30372319  0.57694061  1
  C  C19  1  0.50000016  0.30829659  0.82351541  1
  C  C20  1  0.49999997  0.33042581  0.69359925  1
  C  C21  1  0.50000044  0.33808077  0.93620887  1
  C  C22  1  0.49999990  0.37954873  0.68269844  1
  C  C23  1  0.50000013  0.38369026  0.92659606  1
  C  C24  1  0.49999989  0.40346548  0.55781978  1
  C  C25  1  0.49999988  0.40626872  0.80127104  1
  C  C26  1  0.49999985  0.44975365  0.55204381  1
  C  C27  1  0.49999988  0.45446789  0.79633255  1
  C  C28  1  0.49999986  0.47721384  0.67008668  1
  C  C29  1  0.49999999  0.48007785  0.91746150  1
  C  C30  1  0.49999991  0.52587421  0.66757602  1
  C  C31  1  0.50000004  0.52582741  0.91522311  1
  C  C32  1  0.49999993  0.55145091  0.54587913  1
  C  C33  1  0.49999999  0.55013656  0.79168392  1
  C  C34  1  0.50000000  0.59761400  0.54687380  1
  C  C35  1  0.50000002  0.59851153  0.79284398  1
  C  C36  1  0.50000001  0.62284390  0.66933308  1
  C  C37  1  0.50000005  0.62288881  0.91649871  1
  C  C38  1  0.50000001  0.67148334  0.67210201  1
  C  C39  1  0.50000002  0.66875678  0.91906157  1
  C  C40  1  0.50000004  0.69779917  0.55220329  1
  C  C41  1  0.49999998  0.69457391  0.79841988  1
  C  C42  1  0.50000003  0.74398594  0.55668896  1
  C  C43  1  0.49999994  0.74312057  0.80340355  1
  C  C44  1  0.50000001  0.76799016  0.68001172  1
  C  C45  1  0.49999979  0.76653886  0.92801170  1
  C  C46  1  0.50000005  0.81708811  0.68369934  1
  C  C47  1  0.49999973  0.81334648  0.93201727  1
  H  H48  1  0.50000029  0.88026371  0.58044698  1
  H  H49  1  0.49999985  0.87479659  0.81810698  1
  H  H50  1  0.49999997  0.12229649  0.06983815  1
  H  H51  1  0.50000001  0.12101809  0.34042705  1
  H  H52  1  0.49999996  0.12505910  0.59094800  1
  H  H53  1  0.49999996  0.12552649  0.82716565  1
  H  H54  1  0.50000050  0.83069514  0.46614093  1
  H  H55  1  0.49999935  0.28669745  0.10571745  1
  H  H56  1  0.49999994  0.28803373  0.32007386  1
  H  H57  1  0.49999985  0.32042531  0.47912523  1
  H  H58  1  0.49999995  0.38528749  0.46185690  1
  H  H59  1  0.49999985  0.46544780  0.45211409  1
  H  H60  1  0.49999993  0.53434448  0.44804597  1
  H  H61  1  0.50000006  0.61511573  0.44973760  1
  H  H62  1  0.50000005  0.68154625  0.45317072  1
  H  H63  1  0.50000004  0.76238901  0.46107072  1
  H  H64  1  0.50000111  0.32664584  0.03907912  1
  H  H65  1  0.50000023  0.40243206  0.02128090  1
  H  H66  1  0.50000008  0.46340655  0.01556848  1
  H  H67  1  0.50000016  0.54360752  0.01158438  1
  H  H68  1  0.50000010  0.60522559  0.01308605  1
  H  H69  1  0.50000006  0.68535650  0.01745087  1
  H  H70  1  0.49999967  0.74835698  0.02374577  1
  H  H71  1  0.49999958  0.83040744  0.03007363  1
