# generated using pymatgen
data_H2C5
_symmetry_space_group_name_H-M   'P 1'
_cell_length_a   10.00000000
_cell_length_b   25.62946000
_cell_length_c   9.93848775
_cell_angle_alpha   90.00000000
_cell_angle_beta   90.00000000
_cell_angle_gamma   90.00000000
_symmetry_Int_Tables_number   1
_chemical_formula_structural   H2C5
_chemical_formula_sum   'H16 C40'
_cell_volume   2547.18074153
_cell_formula_units_Z   8
loop_
 _symmetry_equiv_pos_site_id
 _symmetry_equiv_pos_as_xyz
  1  'x, y, z'
loop_
 _atom_site_type_symbol
 _atom_site_label
 _atom_site_symmetry_multiplicity
 _atom_site_fract_x
 _atom_site_fract_y
 _atom_site_fract_z
 _atom_site_occupancy
  C  C0  1  0.50000005  0.21892595  0.60673562  1
  C  C1  1  0.49999761  0.23394479  0.83800917  1
  C  C2  1  0.49999941  0.25718599  0.70570185  1
  C  C3  1  0.49999836  0.26194965  0.95370875  1
  C  C4  1  0.50000032  0.31961243  0.20170178  1
  C  C5  1  0.50000000  0.31983829  0.44993201  1
  C  C6  1  0.50000041  0.31508284  0.70057507  1
  C  C7  1  0.50000018  0.31733236  0.95181738  1
  C  C8  1  0.50000071  0.34533541  0.07684570  1
  C  C9  1  0.50000069  0.34606478  0.32615690  1
  C  C10  1  0.50000048  0.34460078  0.57622944  1
  C  C11  1  0.50000083  0.34397536  0.82468671  1
  C  C12  1  0.50000122  0.40149352  0.07491613  1
  C  C13  1  0.50000127  0.40151068  0.32653712  1
  C  C14  1  0.50000064  0.40126660  0.57761069  1
  C  C15  1  0.50000110  0.40094724  0.82520603  1
  C  C16  1  0.50000128  0.42778783  0.20103864  1
  C  C17  1  0.50000075  0.42860405  0.45143830  1
  C  C18  1  0.50000050  0.42954002  0.70254486  1
  C  C19  1  0.50000110  0.42948049  0.94999174  1
  C  C20  1  0.49999907  0.48295841  0.20148249  1
  C  C21  1  0.49999998  0.48446678  0.44893909  1
  C  C22  1  0.50000021  0.48653575  0.70328532  1
  C  C23  1  0.49999940  0.48638791  0.95142933  1
  C  C24  1  0.49999616  0.50972355  0.07858970  1
  C  C25  1  0.49999855  0.50990284  0.32528152  1
  C  C26  1  0.50000007  0.51285998  0.57582524  1
  C  C27  1  0.50000013  0.51666257  0.82517394  1
  C  C28  1  0.49999960  0.56682551  0.57184915  1
  C  C29  1  0.50000100  0.57418303  0.81629872  1
  C  C30  1  0.49999979  0.59861070  0.68535452  1
  C  C31  1  0.50000391  0.61133065  0.92400288  1
  C  C32  1  0.49999968  0.65541664  0.66550292  1
  C  C33  1  0.50000167  0.66481509  0.90622333  1
  C  C34  1  0.50000035  0.67853900  0.53621761  1
  C  C35  1  0.49999946  0.68912914  0.77953466  1
  C  C36  1  0.50000092  0.73295551  0.51984861  1
  C  C37  1  0.49999947  0.74606559  0.76417469  1
  C  C38  1  0.50000043  0.76612446  0.62953412  1
  C  C39  1  0.49999910  0.78051232  0.87156786  1
  H  H40  1  0.49999808  0.17832337  0.64170842  1
  H  H41  1  0.49999638  0.19123872  0.84313957  1
  H  H42  1  0.50000086  0.80853864  0.61519670  1
  H  H43  1  0.49999944  0.82266664  0.85284605  1
  H  H44  1  0.50000291  0.22247754  0.49797790  1
  H  H45  1  0.49999982  0.27700561  0.20585277  1
  H  H46  1  0.49999868  0.27787313  0.44382785  1
  H  H47  1  0.49998919  0.55137227  0.09018320  1
  H  H48  1  0.49999725  0.55249533  0.31909721  1
  H  H49  1  0.49999955  0.58560292  0.47398440  1
  H  H50  1  0.50000067  0.65482982  0.44494409  1
  H  H51  1  0.50000180  0.74919823  0.41779874  1
  H  H52  1  0.49999757  0.24085193  0.04905596  1
  H  H53  1  0.50001053  0.60070640  0.02901350  1
  H  H54  1  0.50000306  0.68886827  -0.00278576  1
  H  H55  1  0.49999836  0.76788851  -0.02334019  1
