# generated using pymatgen
data_H5C14
_symmetry_space_group_name_H-M   'P 1'
_cell_length_a   10.00000000
_cell_length_b   29.89204000
_cell_length_c   9.89358916
_cell_angle_alpha   90.00000000
_cell_angle_beta   90.00000000
_cell_angle_gamma   90.00000000
_symmetry_Int_Tables_number   1
_chemical_formula_structural   H5C14
_chemical_formula_sum   'H20 C56'
_cell_volume   2957.39563062
_cell_formula_units_Z   4
loop_
 _symmetry_equiv_pos_site_id
 _symmetry_equiv_pos_as_xyz
  1  'x, y, z'
loop_
 _atom_site_type_symbol
 _atom_site_label
 _atom_site_symmetry_multiplicity
 _atom_site_fract_x
 _atom_site_fract_y
 _atom_site_fract_z
 _atom_site_occupancy
  C  C0  1  0.49999978  0.83357636  0.46353727  1
  C  C1  1  0.50000003  0.83994552  0.70827769  1
  C  C2  1  0.49999955  0.16292984  0.10416606  1
  C  C3  1  0.49999958  0.16298872  0.35465430  1
  C  C4  1  0.49999992  0.16306325  0.60509840  1
  C  C5  1  0.49999973  0.16309258  0.85437569  1
  C  C6  1  0.49999902  0.18567118  0.22917952  1
  C  C7  1  0.49999936  0.18571762  0.47985245  1
  C  C8  1  0.49999953  0.18603341  0.72974378  1
  C  C9  1  0.49999908  0.18583196  0.97931618  1
  C  C10  1  0.49999793  0.23400603  0.22877915  1
  C  C11  1  0.49999838  0.23411244  0.47998664  1
  C  C12  1  0.49999863  0.23455075  0.72966625  1
  C  C13  1  0.49999797  0.23429108  0.97872202  1
  C  C14  1  0.49999757  0.25773018  0.10324524  1
  C  C15  1  0.49999742  0.25721639  0.35467653  1
  C  C16  1  0.49999843  0.25824870  0.60498009  1
  C  C17  1  0.49999760  0.25839703  0.85403567  1
  C  C18  1  0.49999776  0.30581438  0.10250956  1
  C  C19  1  0.49999761  0.30498666  0.35481303  1
  C  C20  1  0.49999880  0.30636254  0.60536006  1
  C  C21  1  0.49999705  0.30661844  0.85389975  1
  C  C22  1  0.49999908  0.32801939  0.22926880  1
  C  C23  1  0.49999922  0.32920677  0.47866753  1
  C  C24  1  0.49999903  0.33081792  0.73011019  1
  C  C25  1  0.49999744  0.33062742  0.97850252  1
  C  C26  1  0.50000979  0.37537200  0.22954802  1
  C  C27  1  0.50000224  0.37706567  0.47639230  1
  C  C28  1  0.49999953  0.37956921  0.73085598  1
  C  C29  1  0.50000488  0.37933001  0.97973905  1
  C  C30  1  0.50002193  0.39891353  0.10714460  1
  C  C31  1  0.50000962  0.39878985  0.35262870  1
  C  C32  1  0.50000067  0.40196981  0.60300721  1
  C  C33  1  0.49999945  0.40539024  0.85303969  1
  C  C34  1  0.50000294  0.44820863  0.59820544  1
  C  C35  1  0.49999397  0.45457071  0.84380999  1
  C  C36  1  0.50000104  0.47549875  0.71250228  1
  C  C37  1  0.49997798  0.48655060  0.95228574  1
  C  C38  1  0.50000256  0.52401940  0.69313073  1
  C  C39  1  0.49998818  0.53220156  0.93481551  1
  C  C40  1  0.50000242  0.54436269  0.56277427  1
  C  C41  1  0.50000217  0.55311477  0.80620828  1
  C  C42  1  0.50000202  0.59010095  0.54604487  1
  C  C43  1  0.50000341  0.60122905  0.78966658  1
  C  C44  1  0.50000250  0.62020709  0.65766442  1
  C  C45  1  0.50000285  0.63085181  0.90236442  1
  C  C46  1  0.50000119  0.66836386  0.64053233  1
  C  C47  1  0.50000130  0.67652812  0.88609591  1
  C  C48  1  0.50000029  0.68872426  0.51053610  1
  C  C49  1  0.50000066  0.69691974  0.75603315  1
  C  C50  1  0.49999971  0.73458678  0.49518439  1
  C  C51  1  0.49999992  0.74529291  0.74003791  1
  C  C52  1  0.49999978  0.76409557  0.60704090  1
  C  C53  1  0.49999976  0.77450550  0.85296472  1
  C  C54  1  0.49999981  0.81282337  0.58882650  1
  C  C55  1  0.49999990  0.82103787  0.83613440  1
  H  H56  1  0.49999980  0.87019033  0.45794410  1
  H  H57  1  0.50000043  0.87640423  0.69598590  1
  H  H58  1  0.50000036  0.12621309  0.10419572  1
  H  H59  1  0.50000020  0.12628782  0.35490017  1
  H  H60  1  0.50000038  0.12635560  0.60576351  1
  H  H61  1  0.50000031  0.12638059  0.85418699  1
  H  H62  1  0.49999964  0.81532587  0.36778313  1
  H  H63  1  0.50005313  0.43460914  0.11975220  1
  H  H64  1  0.50001308  0.43526935  0.34572641  1
  H  H65  1  0.50000483  0.46435016  0.50001637  1
  H  H66  1  0.50000122  0.52400274  0.47103370  1
  H  H67  1  0.50000081  0.60307824  0.44267675  1
  H  H68  1  0.50000011  0.66797844  0.41953991  1
  H  H69  1  0.49999937  0.74832058  0.39266323  1
  H  H70  1  0.49994581  0.47718908  0.05760565  1
  H  H71  1  0.49997843  0.55273110  0.02628693  1
  H  H72  1  0.50000376  0.61739971  0.00516199  1
  H  H73  1  0.50000065  0.69734156  -0.02300340  1
  H  H74  1  0.49999977  0.76100571  -0.04436764  1
  H  H75  1  0.49999997  0.84273076  -0.07449038  1
