# generated using pymatgen
data_H3C16
_symmetry_space_group_name_H-M   'P 1'
_cell_length_a   10.00000000
_cell_length_b   29.89204000
_cell_length_c   9.88422723
_cell_angle_alpha   90.00000000
_cell_angle_beta   90.00000000
_cell_angle_gamma   90.00000000
_symmetry_Int_Tables_number   1
_chemical_formula_structural   H3C16
_chemical_formula_sum   'H12 C64'
_cell_volume   2954.59715703
_cell_formula_units_Z   4
loop_
 _symmetry_equiv_pos_site_id
 _symmetry_equiv_pos_as_xyz
  1  'x, y, z'
loop_
 _atom_site_type_symbol
 _atom_site_label
 _atom_site_symmetry_multiplicity
 _atom_site_fract_x
 _atom_site_fract_y
 _atom_site_fract_z
 _atom_site_occupancy
  C  C0  1  0.50000000  0.20084272  0.05717428  1
  C  C1  1  0.50000000  0.20083933  0.30716173  1
  C  C2  1  0.50000000  0.20082395  0.55720392  1
  C  C3  1  0.50000000  0.20082961  0.80723493  1
  C  C4  1  0.50000000  0.22365352  0.18214453  1
  C  C5  1  0.50000000  0.22363910  0.43220409  1
  C  C6  1  0.50000000  0.22362679  0.68221269  1
  C  C7  1  0.50000000  0.22365797  0.93217928  1
  C  C8  1  0.50000001  0.27205861  0.18209149  1
  C  C9  1  0.50000001  0.27205311  0.43216725  1
  C  C10  1  0.50000000  0.27203473  0.68214839  1
  C  C11  1  0.50000000  0.27205777  0.93210964  1
  C  C12  1  0.50000001  0.29576444  0.05710475  1
  C  C13  1  0.50000002  0.29575211  0.30713261  1
  C  C14  1  0.50000001  0.29575319  0.55713475  1
  C  C15  1  0.50000000  0.29573864  0.80707720  1
  C  C16  1  0.50000001  0.34371606  0.05698154  1
  C  C17  1  0.50000002  0.34371664  0.30707448  1
  C  C18  1  0.50000001  0.34372613  0.55710195  1
  C  C19  1  0.50000000  0.34369526  0.80697817  1
  C  C20  1  0.50000001  0.36749969  0.18191902  1
  C  C21  1  0.50000002  0.36750085  0.43212162  1
  C  C22  1  0.50000001  0.36751798  0.68214116  1
  C  C23  1  0.50000000  0.36749760  0.93186888  1
  C  C24  1  0.50000001  0.41540400  0.18180444  1
  C  C25  1  0.50000001  0.41539141  0.43220598  1
  C  C26  1  0.50000001  0.41541917  0.68220054  1
  C  C27  1  0.50000000  0.41538008  0.93167687  1
  C  C28  1  0.50000000  0.43919418  0.05655240  1
  C  C29  1  0.50000001  0.43916299  0.30709528  1
  C  C30  1  0.50000001  0.43923570  0.55726021  1
  C  C31  1  0.50000000  0.43936163  0.80688941  1
  C  C32  1  0.49999999  0.48706918  0.05603873  1
  C  C33  1  0.50000001  0.48696556  0.30731967  1
  C  C34  1  0.50000001  0.48714112  0.55750821  1
  C  C35  1  0.49999999  0.48738493  0.80655403  1
  C  C36  1  0.50000000  0.51035889  0.18139382  1
  C  C37  1  0.50000001  0.51079022  0.43284557  1
  C  C38  1  0.50000000  0.51139304  0.68203405  1
  C  C39  1  0.50000000  0.51134212  0.93112545  1
  C  C40  1  0.50000000  0.55796713  0.18131840  1
  C  C41  1  0.50000001  0.55869715  0.43332571  1
  C  C42  1  0.50000001  0.55951524  0.68204008  1
  C  C43  1  0.50000001  0.55934459  0.93072271  1
  C  C44  1  0.50000001  0.58227780  0.05723641  1
  C  C45  1  0.50000000  0.58096498  0.30675909  1
  C  C46  1  0.50000002  0.58356897  0.55754675  1
  C  C47  1  0.50000001  0.58386082  0.80580016  1
  C  C48  1  0.49999997  0.63014669  0.05918495  1
  C  C49  1  0.49999998  0.62826125  0.30641828  1
  C  C50  1  0.50000004  0.63220101  0.55648097  1
  C  C51  1  0.50000002  0.63252723  0.80504720  1
  C  C52  1  0.49999991  0.65181072  0.18355695  1
  C  C53  1  0.50000002  0.65176829  0.42871618  1
  C  C54  1  0.50000004  0.65824906  0.68245539  1
  C  C55  1  0.49999999  0.65489890  0.93293564  1
  C  C56  1  0.50000000  0.70769326  0.69056908  1
  C  C57  1  0.49999996  0.70141557  0.93696601  1
  C  C58  1  0.50000004  0.73909509  0.58242490  1
  C  C59  1  0.49999995  0.72840190  0.82333035  1
  C  C60  1  0.49999971  0.78582204  0.60022954  1
  C  C61  1  0.49999994  0.77758232  0.84375075  1
  C  C62  1  0.49999967  0.80536753  0.72608811  1
  C  C63  1  0.50000024  0.79784506  0.96941085  1
  H  H64  1  0.50000000  0.16413898  0.05719941  1
  H  H65  1  0.49999998  0.16413407  0.30717632  1
  H  H66  1  0.50000000  0.16411780  0.55726474  1
  H  H67  1  0.50000001  0.16411460  0.80722677  1
  H  H68  1  0.49999956  0.84181669  0.73824171  1
  H  H69  1  0.50000026  0.83444006  0.97653200  1
  H  H70  1  0.49999979  0.68826540  0.19108953  1
  H  H71  1  0.50000004  0.68736560  0.41520881  1
  H  H72  1  0.50000041  0.72970461  0.47711013  1
  H  H73  1  0.49999957  0.80687068  0.50929873  1
  H  H74  1  0.49999998  0.71779999  0.03499929  1
  H  H75  1  0.50000062  0.77956645  0.06516506  1
