# generated using pymatgen
data_H7C22
_symmetry_space_group_name_H-M   'P 1'
_cell_length_a   10.00000000
_cell_length_b   25.62946000
_cell_length_c   9.91414379
_cell_angle_alpha   90.00000000
_cell_angle_beta   90.00000000
_cell_angle_gamma   90.00000000
_symmetry_Int_Tables_number   1
_chemical_formula_structural   H7C22
_chemical_formula_sum   'H14 C44'
_cell_volume   2540.94151731
_cell_formula_units_Z   2
loop_
 _symmetry_equiv_pos_site_id
 _symmetry_equiv_pos_as_xyz
  1  'x, y, z'
loop_
 _atom_site_type_symbol
 _atom_site_label
 _atom_site_symmetry_multiplicity
 _atom_site_fract_x
 _atom_site_fract_y
 _atom_site_fract_z
 _atom_site_occupancy
  C  C0  1  0.50000103  0.23580630  0.53530707  1
  C  C1  1  0.50000063  0.22712802  0.77715712  1
  C  C2  1  0.50000086  0.25966521  0.66026214  1
  C  C3  1  0.50000076  0.24956528  0.90297584  1
  C  C4  1  0.50000085  0.31689324  0.68112444  1
  C  C5  1  0.50000103  0.30405987  0.92123733  1
  C  C6  1  0.50000010  0.34838718  0.56802054  1
  C  C7  1  0.50000106  0.34085366  0.81376544  1
  C  C8  1  0.49999977  0.40586037  0.07566963  1
  C  C9  1  0.49999957  0.40588516  0.32153212  1
  C  C10  1  0.50000019  0.40262900  0.57207813  1
  C  C11  1  0.50000072  0.39859112  0.82221991  1
  C  C12  1  0.49999975  0.43307404  0.19820724  1
  C  C13  1  0.49999987  0.43122867  0.44577745  1
  C  C14  1  0.50000049  0.42867486  0.69989603  1
  C  C15  1  0.50000023  0.42887301  0.94819347  1
  C  C16  1  0.49999985  0.48829211  0.19758859  1
  C  C17  1  0.50000002  0.48703744  0.44810034  1
  C  C18  1  0.50000025  0.48556519  0.69907244  1
  C  C19  1  0.50000014  0.48568869  0.94674778  1
  C  C20  1  0.49999997  0.51428369  0.07068036  1
  C  C21  1  0.49999998  0.51475794  0.32367229  1
  C  C22  1  0.50000008  0.51408639  0.57445270  1
  C  C23  1  0.50000011  0.51396403  0.82236451  1
  C  C24  1  0.49999998  0.57021995  0.07057683  1
  C  C25  1  0.50000015  0.57014793  0.32338112  1
  C  C26  1  0.49999993  0.57028796  0.57409588  1
  C  C27  1  0.49999980  0.57045709  0.82215833  1
  C  C28  1  0.50000020  0.59661879  0.19708177  1
  C  C29  1  0.50000017  0.59758756  0.44791442  1
  C  C30  1  0.49999971  0.59882349  0.69844579  1
  C  C31  1  0.49999980  0.59860115  0.94643613  1
  C  C32  1  0.50000049  0.65211847  0.19734532  1
  C  C33  1  0.50000029  0.65357087  0.44594185  1
  C  C34  1  0.49999941  0.65569434  0.69864693  1
  C  C35  1  0.49999968  0.65523739  0.94768922  1
  C  C36  1  0.50000029  0.67928582  0.07432005  1
  C  C37  1  0.50000072  0.67905005  0.32093205  1
  C  C38  1  0.49999972  0.68197509  0.57092680  1
  C  C39  1  0.49999908  0.68473497  0.82264884  1
  C  C40  1  0.49999915  0.73735170  0.56793328  1
  C  C41  1  0.49999854  0.74252582  0.81643429  1
  C  C42  1  0.49999821  0.76564942  0.68362111  1
  C  C43  1  0.49999882  0.78061415  0.91599127  1
  H  H44  1  0.50000075  0.19309876  0.53040014  1
  H  H45  1  0.50000043  0.18465793  0.76432308  1
  H  H46  1  0.49999747  0.80838532  0.67808182  1
  H  H47  1  0.49999854  0.82134447  0.88187319  1
  H  H48  1  0.50000136  0.25666063  0.43915953  1
  H  H49  1  0.49999935  0.32910239  0.47048402  1
  H  H50  1  0.49999931  0.36423101  0.08798769  1
  H  H51  1  0.49999937  0.36333086  0.31506546  1
  H  H52  1  0.50000056  0.72122526  0.08277110  1
  H  H53  1  0.50000095  0.72160222  0.31508689  1
  H  H54  1  0.49999928  0.75815641  0.47189641  1
  H  H55  1  0.50000059  0.22470198  -0.00698799  1
  H  H56  1  0.50000110  0.31475296  0.02644068  1
  H  H57  1  0.49999951  0.77629423  0.02479379  1
