# generated using pymatgen
data_H9C22
_symmetry_space_group_name_H-M   'P 1'
_cell_length_a   10.00000000
_cell_length_b   25.62946000
_cell_length_c   9.93992539
_cell_angle_alpha   90.00000000
_cell_angle_beta   90.00000000
_cell_angle_gamma   90.00000000
_symmetry_Int_Tables_number   1
_chemical_formula_structural   H9C22
_chemical_formula_sum   'H18 C44'
_cell_volume   2547.54920205
_cell_formula_units_Z   2
loop_
 _symmetry_equiv_pos_site_id
 _symmetry_equiv_pos_as_xyz
  1  'x, y, z'
loop_
 _atom_site_type_symbol
 _atom_site_label
 _atom_site_symmetry_multiplicity
 _atom_site_fract_x
 _atom_site_fract_y
 _atom_site_fract_z
 _atom_site_occupancy
  C  C0  1  0.49999931  0.80552328  0.49493353  1
  C  C1  1  0.49999970  0.81297227  0.73852758  1
  C  C2  1  0.50000077  0.17678984  0.61606943  1
  C  C3  1  0.49999885  0.19211430  0.84707610  1
  C  C4  1  0.49999977  0.21522536  0.71458200  1
  C  C5  1  0.49999919  0.22023402  0.96251344  1
  C  C6  1  0.50000007  0.27777219  0.20993442  1
  C  C7  1  0.49999953  0.27786662  0.45798452  1
  C  C8  1  0.50000041  0.27314348  0.70894068  1
  C  C9  1  0.50000054  0.27556465  0.96013544  1
  C  C10  1  0.50000124  0.30350749  0.08505882  1
  C  C11  1  0.50000143  0.30419190  0.33423486  1
  C  C12  1  0.50000067  0.30261039  0.58432626  1
  C  C13  1  0.50000139  0.30213975  0.83290780  1
  C  C14  1  0.50000264  0.35963203  0.08270231  1
  C  C15  1  0.50000325  0.35961532  0.33426212  1
  C  C16  1  0.50000137  0.35928248  0.58544022  1
  C  C17  1  0.50000251  0.35908241  0.83308064  1
  C  C18  1  0.50000286  0.38591274  0.20873814  1
  C  C19  1  0.50000172  0.38660852  0.45913010  1
  C  C20  1  0.50000129  0.38759195  0.71025459  1
  C  C21  1  0.50000279  0.38761999  0.95776947  1
  C  C22  1  0.49999416  0.44104639  0.20889484  1
  C  C23  1  0.49999945  0.44242075  0.45631325  1
  C  C24  1  0.50000108  0.44454995  0.71059977  1
  C  C25  1  0.49999664  0.44449441  0.95897162  1
  C  C26  1  0.49998249  0.46781919  0.08606473  1
  C  C27  1  0.49999415  0.46789451  0.33278091  1
  C  C28  1  0.50000000  0.47088702  0.58310016  1
  C  C29  1  0.50000095  0.47462144  0.83237376  1
  C  C30  1  0.49999677  0.52475255  0.57869731  1
  C  C31  1  0.50000546  0.53192012  0.82304427  1
  C  C32  1  0.49999856  0.55635933  0.69257165  1
  C  C33  1  0.50002007  0.56909417  0.93082801  1
  C  C34  1  0.49999725  0.61287573  0.67332511  1
  C  C35  1  0.50001001  0.62230692  0.91393445  1
  C  C36  1  0.49999817  0.63638133  0.54360768  1
  C  C37  1  0.49999723  0.64663066  0.78623162  1
  C  C38  1  0.49999849  0.68989528  0.52727445  1
  C  C39  1  0.49999617  0.70283853  0.77035037  1
  C  C40  1  0.49999734  0.72458588  0.63782234  1
  C  C41  1  0.49999665  0.73677534  0.88275726  1
  C  C42  1  0.49999867  0.78134882  0.61963746  1
  C  C43  1  0.49999871  0.79102913  0.86586365  1
  H  H44  1  0.50000028  0.84821430  0.48912909  1
  H  H45  1  0.50000143  0.85547169  0.72609320  1
  H  H46  1  0.50000009  0.13626296  0.65172211  1
  H  H47  1  0.49999869  0.14942300  0.85276057  1
  H  H48  1  0.49999898  0.78420826  0.39969316  1
  H  H49  1  0.50000264  0.18005719  0.50723931  1
  H  H50  1  0.49999822  0.23517972  0.21501912  1
  H  H51  1  0.49999621  0.23585258  0.45222589  1
  H  H52  1  0.49995295  0.50946453  0.09790425  1
  H  H53  1  0.49999189  0.51046978  0.32699978  1
  H  H54  1  0.49999418  0.54368315  0.48111538  1
  H  H55  1  0.50000010  0.61247197  0.45264040  1
  H  H56  1  0.50000055  0.70551754  0.42473738  1
  H  H57  1  0.49999911  0.19946349  0.05831607  1
  H  H58  1  0.50005057  0.55818617  0.03547574  1
  H  H59  1  0.50001855  0.64592166  0.00556652  1
  H  H60  1  0.49999587  0.72096966  -0.01515519  1
  H  H61  1  0.49999995  0.81628663  -0.04512994  1
