# generated using pymatgen
data_HC2
_symmetry_space_group_name_H-M   'P 1'
_cell_length_a   10.00000000
_cell_length_b   21.36688000
_cell_length_c   9.96361418
_cell_angle_alpha   90.00000000
_cell_angle_beta   90.00000000
_cell_angle_gamma   90.00000000
_symmetry_Int_Tables_number   1
_chemical_formula_structural   HC2
_chemical_formula_sum   'H14 C28'
_cell_volume   2128.91348511
_cell_formula_units_Z   14
loop_
 _symmetry_equiv_pos_site_id
 _symmetry_equiv_pos_as_xyz
  1  'x, y, z'
loop_
 _atom_site_type_symbol
 _atom_site_label
 _atom_site_symmetry_multiplicity
 _atom_site_fract_x
 _atom_site_fract_y
 _atom_site_fract_z
 _atom_site_occupancy
  C  C0  1  0.49999969  0.21425612  0.58010439  1
  C  C1  1  0.49999787  0.23283591  0.81008851  1
  C  C2  1  0.49999883  0.26051824  0.67792985  1
  C  C3  1  0.49999867  0.26674901  0.92483822  1
  C  C4  1  0.49999971  0.33327574  0.17396206  1
  C  C5  1  0.49999946  0.33517233  0.42354601  1
  C  C6  1  0.49999949  0.33016972  0.67260636  1
  C  C7  1  0.49999961  0.33319168  0.92311959  1
  C  C8  1  0.49999995  0.36516750  0.05048040  1
  C  C9  1  0.49999988  0.36497666  0.29780169  1
  C  C10  1  0.49999981  0.36569571  0.54854055  1
  C  C11  1  0.49999985  0.36510346  0.79575504  1
  C  C12  1  0.50000038  0.43246860  0.05084742  1
  C  C13  1  0.50000031  0.43164344  0.29751872  1
  C  C14  1  0.50000040  0.43456462  0.54826257  1
  C  C15  1  0.50000052  0.43403314  0.79544803  1
  C  C16  1  0.50000050  0.46365229  0.17404825  1
  C  C17  1  0.50000048  0.46285818  0.42143327  1
  C  C18  1  0.50000084  0.47041389  0.67397597  1
  C  C19  1  0.50000066  0.46533670  0.92312899  1
  C  C20  1  0.50000110  0.53995833  0.68266208  1
  C  C21  1  0.50000078  0.53058369  0.92682147  1
  C  C22  1  0.50000082  0.58425237  0.57662940  1
  C  C23  1  0.50000104  0.56858161  0.81507096  1
  C  C24  1  0.50000001  0.64972692  0.59543827  1
  C  C25  1  0.50000078  0.63725740  0.83677700  1
  C  C26  1  0.50000000  0.67650124  0.72052011  1
  C  C27  1  0.50000085  0.66565821  0.96121901  1
  H  H28  1  0.49999904  0.16571209  0.61613330  1
  H  H29  1  0.49999691  0.18164963  0.81591723  1
  H  H30  1  0.49999935  0.72747253  0.73321930  1
  H  H31  1  0.50000038  0.71687674  0.96718709  1
  H  H32  1  0.50000177  0.21797944  0.47145491  1
  H  H33  1  0.49999935  0.28219607  0.17756775  1
  H  H34  1  0.49999861  0.28476729  0.42082471  1
  H  H35  1  0.50000077  0.51473113  0.17902285  1
  H  H36  1  0.50000066  0.51291769  0.41169713  1
  H  H37  1  0.50000096  0.57218378  0.47143655  1
  H  H38  1  0.49999943  0.67939203  0.50556726  1
  H  H39  1  0.49999861  0.24174193  0.02025294  1
  H  H40  1  0.50000049  0.55347443  0.02423561  1
  H  H41  1  0.50000140  0.64061836  0.05690918  1
