# generated using pymatgen
data_H7C30
_symmetry_space_group_name_H-M   'P 1'
_cell_length_a   10.00000000
_cell_length_b   29.89204000
_cell_length_c   9.90324906
_cell_angle_alpha   90.00000000
_cell_angle_beta   90.00000000
_cell_angle_gamma   90.00000000
_symmetry_Int_Tables_number   1
_chemical_formula_structural   H7C30
_chemical_formula_sum   'H14 C60'
_cell_volume   2960.28316903
_cell_formula_units_Z   2
loop_
 _symmetry_equiv_pos_site_id
 _symmetry_equiv_pos_as_xyz
  1  'x, y, z'
loop_
 _atom_site_type_symbol
 _atom_site_label
 _atom_site_symmetry_multiplicity
 _atom_site_fract_x
 _atom_site_fract_y
 _atom_site_fract_z
 _atom_site_occupancy
  C  C0  1  0.50000003  0.20166623  0.53366565  1
  C  C1  1  0.49999999  0.19412594  0.77579732  1
  C  C2  1  0.50000001  0.22209496  0.65878281  1
  C  C3  1  0.49999995  0.21346321  0.90166517  1
  C  C4  1  0.50000000  0.27122730  0.67947525  1
  C  C5  1  0.49999991  0.26018005  0.91986299  1
  C  C6  1  0.50000001  0.29817455  0.56599560  1
  C  C7  1  0.49999996  0.29174916  0.81226044  1
  C  C8  1  0.50000006  0.34759045  0.07437121  1
  C  C9  1  0.50000001  0.34767595  0.31954649  1
  C  C10  1  0.50000000  0.34467062  0.56999186  1
  C  C11  1  0.49999998  0.34121519  0.82063003  1
  C  C12  1  0.50000002  0.37113860  0.19659673  1
  C  C13  1  0.50000000  0.36940299  0.44372282  1
  C  C14  1  0.49999999  0.36694788  0.69795015  1
  C  C15  1  0.50000001  0.36719604  0.94668927  1
  C  C16  1  0.50000000  0.41847027  0.19595350  1
  C  C17  1  0.50000000  0.41725595  0.44555647  1
  C  C18  1  0.50000000  0.41560588  0.69684183  1
  C  C19  1  0.49999999  0.41584698  0.94510332  1
  C  C20  1  0.50000000  0.44070992  0.06915172  1
  C  C21  1  0.50000000  0.44147618  0.32140513  1
  C  C22  1  0.50000000  0.44014077  0.57197680  1
  C  C23  1  0.49999999  0.43987668  0.82048325  1
  C  C24  1  0.50000000  0.48860784  0.06932529  1
  C  C25  1  0.50000000  0.48907947  0.32080103  1
  C  C26  1  0.50000000  0.48810773  0.57130437  1
  C  C27  1  0.50000000  0.48800837  0.82016328  1
  C  C28  1  0.50000000  0.51233180  0.19472311  1
  C  C29  1  0.50000000  0.51228470  0.44622843  1
  C  C30  1  0.50000000  0.51207847  0.69577469  1
  C  C31  1  0.50000000  0.51222365  0.94449148  1
  C  C32  1  0.50000000  0.56005604  0.19456196  1
  C  C33  1  0.50000001  0.56011971  0.44594734  1
  C  C34  1  0.50000001  0.56018719  0.69548419  1
  C  C35  1  0.50000001  0.56013767  0.94424507  1
  C  C36  1  0.50000000  0.58373419  0.06907869  1
  C  C37  1  0.50000001  0.58342310  0.32032702  1
  C  C38  1  0.50000001  0.58421932  0.57088169  1
  C  C39  1  0.50000001  0.58426700  0.81968855  1
  C  C40  1  0.50000000  0.63161906  0.06870079  1
  C  C41  1  0.50000000  0.63110713  0.32017280  1
  C  C42  1  0.50000000  0.63221010  0.57069422  1
  C  C43  1  0.50000001  0.63238969  0.81951412  1
  C  C44  1  0.50000000  0.65424678  0.19472850  1
  C  C45  1  0.50000000  0.65518666  0.44445804  1
  C  C46  1  0.50000000  0.65657759  0.69536074  1
  C  C47  1  0.50000000  0.65615181  0.94420635  1
  C  C48  1  0.49999999  0.70185725  0.19479007  1
  C  C49  1  0.49999999  0.70318217  0.44278010  1
  C  C50  1  0.50000000  0.70517266  0.69568930  1
  C  C51  1  0.50000000  0.70461584  0.94509688  1
  C  C52  1  0.49999998  0.72521077  0.07181786  1
  C  C53  1  0.49999998  0.72512670  0.31803579  1
  C  C54  1  0.50000000  0.72760993  0.56781949  1
  C  C55  1  0.50000000  0.72993055  0.82004071  1
  C  C56  1  0.49999998  0.77507469  0.56519092  1
  C  C57  1  0.50000001  0.77940897  0.81405600  1
  C  C58  1  0.49999998  0.79927304  0.68116614  1
  C  C59  1  0.50000004  0.81204314  0.91380365  1
  H  H60  1  0.50000004  0.16504105  0.52867187  1
  H  H61  1  0.49999999  0.15768353  0.76343195  1
  H  H62  1  0.49999997  0.83590601  0.67611046  1
  H  H63  1  0.50000003  0.84691538  0.87943695  1
  H  H64  1  0.50000006  0.21965795  0.43758032  1
  H  H65  1  0.50000002  0.28152375  0.46848226  1
  H  H66  1  0.50000015  0.31192519  0.08752054  1
  H  H67  1  0.50000002  0.31119305  0.31271091  1
  H  H68  1  0.49999994  0.76117196  0.08001061  1
  H  H69  1  0.49999998  0.76162719  0.31222761  1
  H  H70  1  0.49999997  0.79296004  0.46922420  1
  H  H71  1  0.49999992  0.19224500  -0.00795998  1
  H  H72  1  0.49999980  0.26938221  0.02518727  1
  H  H73  1  0.50000012  0.80840190  0.02274058  1
