# generated using pymatgen
data_H5C12
_symmetry_space_group_name_H-M   'P 1'
_cell_length_a   10.00000000
_cell_length_b   29.89204000
_cell_length_c   9.94385103
_cell_angle_alpha   90.00000000
_cell_angle_beta   90.00000000
_cell_angle_gamma   90.00000000
_symmetry_Int_Tables_number   1
_chemical_formula_structural   H5C12
_chemical_formula_sum   'H20 C48'
_cell_volume   2972.41992764
_cell_formula_units_Z   4
loop_
 _symmetry_equiv_pos_site_id
 _symmetry_equiv_pos_as_xyz
  1  'x, y, z'
loop_
 _atom_site_type_symbol
 _atom_site_label
 _atom_site_symmetry_multiplicity
 _atom_site_fract_x
 _atom_site_fract_y
 _atom_site_fract_z
 _atom_site_occupancy
  C  C0  1  0.50000002  0.20217023  0.48792106  1
  C  C1  1  0.50000000  0.19497856  0.73192473  1
  C  C2  1  0.49999998  0.22229778  0.61348328  1
  C  C3  1  0.49999992  0.21362425  0.85949805  1
  C  C4  1  0.49999987  0.27095610  0.63282046  1
  C  C5  1  0.49999975  0.26013243  0.87730481  1
  C  C6  1  0.49999992  0.30086399  0.52278877  1
  C  C7  1  0.49999973  0.28948727  0.76545453  1
  C  C8  1  0.49999986  0.34673366  0.53917565  1
  C  C9  1  0.49999974  0.33776639  0.78149956  1
  C  C10  1  0.49999979  0.36686228  0.66886097  1
  C  C11  1  0.50000064  0.35868549  0.90910402  1
  C  C12  1  0.49999991  0.41537976  0.68817395  1
  C  C13  1  0.50000150  0.40435540  0.92646183  1
  C  C14  1  0.49999985  0.44254175  0.57422536  1
  C  C15  1  0.50000046  0.43637306  0.81860417  1
  C  C16  1  0.49999896  0.49145757  0.07997422  1
  C  C17  1  0.50000005  0.49128398  0.32729901  1
  C  C18  1  0.50000032  0.48873534  0.57795194  1
  C  C19  1  0.50000026  0.48567970  0.82695839  1
  C  C20  1  0.50000015  0.51415615  0.20295325  1
  C  C21  1  0.50000045  0.51310240  0.45093195  1
  C  C22  1  0.50000047  0.51150708  0.70500056  1
  C  C23  1  0.50000001  0.51166555  0.95293570  1
  C  C24  1  0.50000088  0.56136836  0.20236223  1
  C  C25  1  0.50000065  0.56104044  0.45365030  1
  C  C26  1  0.50000058  0.56039433  0.70396816  1
  C  C27  1  0.50000043  0.56034451  0.95113926  1
  C  C28  1  0.50000042  0.58403651  0.07642091  1
  C  C29  1  0.50000074  0.58380651  0.32788576  1
  C  C30  1  0.50000053  0.58492753  0.57909636  1
  C  C31  1  0.50000035  0.58487653  0.82610308  1
  C  C32  1  0.49999963  0.63198912  0.07888144  1
  C  C33  1  0.49999857  0.63108607  0.32726240  1
  C  C34  1  0.49999920  0.63367525  0.57746757  1
  C  C35  1  0.50000019  0.63371887  0.82526649  1
  C  C36  1  0.49999825  0.65387570  0.20283671  1
  C  C37  1  0.49999609  0.65390754  0.45009292  1
  C  C38  1  0.50000019  0.65955542  0.70318095  1
  C  C39  1  0.49999976  0.65623925  0.95265370  1
  C  C40  1  0.50000111  0.70916403  0.71173663  1
  C  C41  1  0.49999906  0.70268094  0.95660566  1
  C  C42  1  0.50000438  0.74085320  0.60510858  1
  C  C43  1  0.49999942  0.72969539  0.84406023  1
  C  C44  1  0.50000191  0.78758361  0.62410750  1
  C  C45  1  0.49999928  0.77873731  0.86592009  1
  C  C46  1  0.49999915  0.80677199  0.74960202  1
  C  C47  1  0.49999954  0.79886404  0.99102215  1
  H  H48  1  0.50000012  0.16561878  0.47950795  1
  H  H49  1  0.50000007  0.15854151  0.71947884  1
  H  H50  1  0.49999824  0.84317514  0.76251374  1
  H  H51  1  0.49999952  0.83545923  0.99746158  1
  H  H52  1  0.49999991  0.22117716  0.39398122  1
  H  H53  1  0.50000004  0.28751620  0.42034081  1
  H  H54  1  0.49999999  0.36712372  0.44801373  1
  H  H55  1  0.49999955  0.42631231  0.47664248  1
  H  H56  1  0.49999641  0.45572663  0.09049040  1
  H  H57  1  0.49999974  0.45476557  0.32145831  1
  H  H58  1  0.49999730  0.69040741  0.20831271  1
  H  H59  1  0.49998952  0.68964576  0.43922611  1
  H  H60  1  0.50001134  0.73195048  0.49999937  1
  H  H61  1  0.50000295  0.80893700  0.53439567  1
  H  H62  1  0.49999996  0.19174057  -0.05199711  1
  H  H63  1  0.49999970  0.27338400  -0.02025884  1
  H  H64  1  0.50000129  0.33820673  0.00031295  1
  H  H65  1  0.50000387  0.41341063  0.03148469  1
  H  H66  1  0.49999866  0.71903399  0.05414994  1
  H  H67  1  0.49999994  0.78087440  0.08674813  1
