# generated using pymatgen
data_HC6
_symmetry_space_group_name_H-M   'P 1'
_cell_length_a   10.00000000
_cell_length_b   25.62946000
_cell_length_c   9.88220118
_cell_angle_alpha   90.00000000
_cell_angle_beta   90.00000000
_cell_angle_gamma   90.00000000
_symmetry_Int_Tables_number   1
_chemical_formula_structural   HC6
_chemical_formula_sum   'H10 C60'
_cell_volume   2532.75479760
_cell_formula_units_Z   10
loop_
 _symmetry_equiv_pos_site_id
 _symmetry_equiv_pos_as_xyz
  1  'x, y, z'
loop_
 _atom_site_type_symbol
 _atom_site_label
 _atom_site_symmetry_multiplicity
 _atom_site_fract_x
 _atom_site_fract_y
 _atom_site_fract_z
 _atom_site_occupancy
  C  C0  1  0.50000004  0.82093320  0.58775520  1
  C  C1  1  0.49999967  0.80580552  0.82080443  1
  C  C2  1  0.50000013  0.19336978  0.06217870  1
  C  C3  1  0.49999962  0.19336730  0.31215381  1
  C  C4  1  0.49999897  0.19334790  0.56206771  1
  C  C5  1  0.49999963  0.19335689  0.81208700  1
  C  C6  1  0.49999986  0.21999387  0.18712422  1
  C  C7  1  0.49999922  0.22000477  0.43706697  1
  C  C8  1  0.49999928  0.21996938  0.68701770  1
  C  C9  1  0.50000002  0.21995374  0.93707608  1
  C  C10  1  0.49999979  0.27642958  0.18684422  1
  C  C11  1  0.49999958  0.27644632  0.43681514  1
  C  C12  1  0.49999989  0.27640306  0.68678914  1
  C  C13  1  0.50000003  0.27637803  0.93680938  1
  C  C14  1  0.49999997  0.30403025  0.06170768  1
  C  C15  1  0.49999975  0.30409273  0.31175068  1
  C  C16  1  0.49999998  0.30407185  0.56172253  1
  C  C17  1  0.50000022  0.30401830  0.81169817  1
  C  C18  1  0.50000006  0.35995845  0.06128976  1
  C  C19  1  0.49999994  0.36001976  0.31134412  1
  C  C20  1  0.50000021  0.35998110  0.56137633  1
  C  C21  1  0.50000033  0.35993575  0.81134121  1
  C  C22  1  0.50000000  0.38770660  0.18611298  1
  C  C23  1  0.50000002  0.38770043  0.43630136  1
  C  C24  1  0.50000020  0.38767868  0.68630482  1
  C  C25  1  0.50000014  0.38768840  0.93613789  1
  C  C26  1  0.50000003  0.44351789  0.18560688  1
  C  C27  1  0.49999992  0.44350232  0.43594489  1
  C  C28  1  0.49999981  0.44350644  0.68592961  1
  C  C29  1  0.50000003  0.44350470  0.93559788  1
  C  C30  1  0.50000006  0.47124038  0.06032174  1
  C  C31  1  0.50000003  0.47114755  0.31071362  1
  C  C32  1  0.49999984  0.47125216  0.56090882  1
  C  C33  1  0.49999985  0.47136029  0.81056211  1
  C  C34  1  0.50000021  0.52702536  0.05944404  1
  C  C35  1  0.50000031  0.52685707  0.31035426  1
  C  C36  1  0.50000018  0.52704223  0.56065420  1
  C  C37  1  0.50000005  0.52726866  0.80987788  1
  C  C38  1  0.50000040  0.55427634  0.18455951  1
  C  C39  1  0.50000048  0.55451778  0.43561277  1
  C  C40  1  0.50000032  0.55517813  0.68515011  1
  C  C41  1  0.50000023  0.55516219  0.93439714  1
  C  C42  1  0.50000044  0.60987431  0.18396921  1
  C  C43  1  0.50000069  0.61031032  0.43544775  1
  C  C44  1  0.50000067  0.61130036  0.68482477  1
  C  C45  1  0.50000033  0.61110493  0.93368823  1
  C  C46  1  0.50000023  0.63799243  0.05952902  1
  C  C47  1  0.50000046  0.63680005  0.30931623  1
  C  C48  1  0.50000074  0.63889400  0.55982312  1
  C  C49  1  0.50000048  0.63956772  0.80876492  1
  C  C50  1  0.49999983  0.69394249  0.06067265  1
  C  C51  1  0.50000010  0.69232703  0.30876089  1
  C  C52  1  0.50000048  0.69532929  0.55835986  1
  C  C53  1  0.50000024  0.69616855  0.80766646  1
  C  C54  1  0.49999978  0.71954141  0.18539511  1
  C  C55  1  0.50000017  0.71952350  0.43170141  1
  C  C56  1  0.50000027  0.72497430  0.68287238  1
  C  C57  1  0.49999974  0.72242047  0.93542166  1
  C  C58  1  0.50000002  0.78271304  0.68763489  1
  C  C59  1  0.49999943  0.77776723  0.93735306  1
  H  H60  1  0.49999993  0.86155260  0.62302991  1
  H  H61  1  0.49999963  0.84850588  0.82558588  1
  H  H62  1  0.50000031  0.15057159  0.06237555  1
  H  H63  1  0.49999986  0.15055752  0.31224492  1
  H  H64  1  0.49999912  0.15053472  0.56220611  1
  H  H65  1  0.49999994  0.15055828  0.81232552  1
  H  H66  1  0.50000000  0.81723698  0.47825442  1
  H  H67  1  0.49999971  0.76211320  0.19055975  1
  H  H68  1  0.49999993  0.76146374  0.42382543  1
  H  H69  1  0.49999919  0.79893260  0.03307815  1
