# generated using pymatgen
data_H3C16
_symmetry_space_group_name_H-M   'P 1'
_cell_length_a   10.00000000
_cell_length_b   29.89204000
_cell_length_c   9.89287007
_cell_angle_alpha   90.00000000
_cell_angle_beta   90.00000000
_cell_angle_gamma   90.00000000
_symmetry_Int_Tables_number   1
_chemical_formula_structural   H3C16
_chemical_formula_sum   'H12 C64'
_cell_volume   2957.18067733
_cell_formula_units_Z   4
loop_
 _symmetry_equiv_pos_site_id
 _symmetry_equiv_pos_as_xyz
  1  'x, y, z'
loop_
 _atom_site_type_symbol
 _atom_site_label
 _atom_site_symmetry_multiplicity
 _atom_site_fract_x
 _atom_site_fract_y
 _atom_site_fract_z
 _atom_site_occupancy
  C  C0  1  0.49999997  0.18796849  0.59103413  1
  C  C1  1  0.50000001  0.20090207  0.82401499  1
  C  C2  1  0.49999999  0.22071375  0.69082898  1
  C  C3  1  0.50000002  0.22500875  0.94034616  1
  C  C4  1  0.50000000  0.27516539  0.18799523  1
  C  C5  1  0.50000002  0.27510321  0.43427979  1
  C  C6  1  0.50000000  0.27025780  0.68554996  1
  C  C7  1  0.50000001  0.27251966  0.93817703  1
  C  C8  1  0.50000000  0.29706552  0.06316239  1
  C  C9  1  0.50000001  0.29847619  0.31133472  1
  C  C10  1  0.50000000  0.29572897  0.56092887  1
  C  C11  1  0.50000000  0.29499394  0.81027246  1
  C  C12  1  0.50000000  0.34506521  0.06186958  1
  C  C13  1  0.50000000  0.34607549  0.31168527  1
  C  C14  1  0.50000000  0.34421372  0.56220864  1
  C  C15  1  0.50000000  0.34362292  0.81108900  1
  C  C16  1  0.50000000  0.36922797  0.18630678  1
  C  C17  1  0.50000000  0.36873561  0.43783755  1
  C  C18  1  0.50000000  0.36793871  0.68717762  1
  C  C19  1  0.50000000  0.36811604  0.93594511  1
  C  C20  1  0.50000000  0.41692042  0.18668646  1
  C  C21  1  0.50000000  0.41658882  0.43785404  1
  C  C22  1  0.50000000  0.41605309  0.68733322  1
  C  C23  1  0.50000000  0.41613912  0.93638604  1
  C  C24  1  0.50000000  0.44028591  0.06137965  1
  C  C25  1  0.50000000  0.44040332  0.31261863  1
  C  C26  1  0.50000000  0.44017541  0.56279731  1
  C  C27  1  0.50000000  0.44006351  0.81183765  1
  C  C28  1  0.50000000  0.48812858  0.06188876  1
  C  C29  1  0.50000000  0.48819825  0.31273317  1
  C  C30  1  0.50000000  0.48802066  0.56291939  1
  C  C31  1  0.50000000  0.48803431  0.81228772  1
  C  C32  1  0.50000000  0.51180158  0.18727777  1
  C  C33  1  0.50000000  0.51187180  0.43812155  1
  C  C34  1  0.50000000  0.51196670  0.68772281  1
  C  C35  1  0.50000000  0.51198031  0.93709106  1
  C  C36  1  0.50000000  0.55959618  0.18738966  1
  C  C37  1  0.50000000  0.55971434  0.43862830  1
  C  C38  1  0.50000000  0.55993747  0.68817057  1
  C  C39  1  0.50000000  0.55982509  0.93721119  1
  C  C40  1  0.50000000  0.58341033  0.06215432  1
  C  C41  1  0.50000000  0.58307895  0.31332111  1
  C  C42  1  0.50000000  0.58386199  0.56362077  1
  C  C43  1  0.50000000  0.58394758  0.81267515  1
  C  C44  1  0.50000000  0.63126282  0.06216855  1
  C  C45  1  0.50000000  0.63077169  0.31369918  1
  C  C46  1  0.50000000  0.63188620  0.56405648  1
  C  C47  1  0.50000000  0.63206145  0.81282649  1
  C  C48  1  0.50000000  0.65392200  0.18831710  1
  C  C49  1  0.50000000  0.65493536  0.43812907  1
  C  C50  1  0.50000000  0.65637696  0.68891521  1
  C  C51  1  0.50000000  0.65578524  0.93779815  1
  C  C52  1  0.49999999  0.70152146  0.18866502  1
  C  C53  1  0.50000000  0.70293746  0.43683167  1
  C  C54  1  0.50000000  0.70500614  0.68972184  1
  C  C55  1  0.50000000  0.70426953  0.93907339  1
  C  C56  1  0.49999998  0.72489519  0.06571738  1
  C  C57  1  0.50000000  0.72483530  0.31199021  1
  C  C58  1  0.49999999  0.72748148  0.56182134  1
  C  C59  1  0.50000000  0.72974027  0.81445346  1
  C  C60  1  0.49999998  0.77499041  0.55962377  1
  C  C61  1  0.50000001  0.77928362  0.80917108  1
  C  C62  1  0.49999999  0.79909926  0.67599533  1
  C  C63  1  0.50000003  0.81203151  0.90896037  1
  H  H64  1  0.49999998  0.15308726  0.62549435  1
  H  H65  1  0.50000002  0.16427083  0.82942419  1
  H  H66  1  0.49999998  0.83572571  0.67061905  1
  H  H67  1  0.50000002  0.84690952  0.87447519  1
  H  H68  1  0.49999994  0.19112808  0.48173874  1
  H  H69  1  0.50000001  0.23867066  0.19366230  1
  H  H70  1  0.50000003  0.23914243  0.42570001  1
  H  H71  1  0.49999997  0.76085679  0.07429377  1
  H  H72  1  0.49999999  0.76133057  0.30627249  1
  H  H73  1  0.49999998  0.79319599  0.46403592  1
  H  H74  1  0.50000002  0.20679799  0.03593245  1
  H  H75  1  0.50000006  0.80888768  0.01826588  1
