# generated using pymatgen
data_H2C5
_symmetry_space_group_name_H-M   'P 1'
_cell_length_a   10.00000000
_cell_length_b   25.62946000
_cell_length_c   9.93532322
_cell_angle_alpha   90.00000000
_cell_angle_beta   90.00000000
_cell_angle_gamma   90.00000000
_symmetry_Int_Tables_number   1
_chemical_formula_structural   H2C5
_chemical_formula_sum   'H16 C40'
_cell_volume   2546.36969097
_cell_formula_units_Z   8
loop_
 _symmetry_equiv_pos_site_id
 _symmetry_equiv_pos_as_xyz
  1  'x, y, z'
loop_
 _atom_site_type_symbol
 _atom_site_label
 _atom_site_symmetry_multiplicity
 _atom_site_fract_x
 _atom_site_fract_y
 _atom_site_fract_z
 _atom_site_occupancy
  C  C0  1  0.50000021  0.23509380  0.52528400  1
  C  C1  1  0.50000009  0.22658695  0.76693057  1
  C  C2  1  0.50000011  0.25906795  0.64986673  1
  C  C3  1  0.49999992  0.24933888  0.89206664  1
  C  C4  1  0.50000014  0.31644943  0.67057034  1
  C  C5  1  0.49999961  0.30390750  0.90983125  1
  C  C6  1  0.50000002  0.34792820  0.55789521  1
  C  C7  1  0.50000003  0.34063708  0.80280003  1
  C  C8  1  0.50000036  0.40519020  0.06474442  1
  C  C9  1  0.49999984  0.40523867  0.31189004  1
  C  C10  1  0.50000004  0.40222119  0.56208340  1
  C  C11  1  0.50000013  0.39850304  0.81139849  1
  C  C12  1  0.49999993  0.43184303  0.18764588  1
  C  C13  1  0.49999995  0.43065330  0.43610231  1
  C  C14  1  0.50000013  0.42864330  0.68934907  1
  C  C15  1  0.50000017  0.42865546  0.93734107  1
  C  C16  1  0.49999989  0.48694659  0.18712288  1
  C  C17  1  0.50000003  0.48661784  0.43869465  1
  C  C18  1  0.50000006  0.48573050  0.68879921  1
  C  C19  1  0.49999997  0.48557620  0.93583616  1
  C  C20  1  0.49999993  0.51338205  0.06129703  1
  C  C21  1  0.50000005  0.51304817  0.31286439  1
  C  C22  1  0.50000003  0.51442942  0.56415015  1
  C  C23  1  0.49999994  0.51427589  0.81119347  1
  C  C24  1  0.50000003  0.56934636  0.06389438  1
  C  C25  1  0.50000007  0.56815018  0.31234200  1
  C  C26  1  0.49999986  0.57135207  0.56264692  1
  C  C27  1  0.49999987  0.57136283  0.81064507  1
  C  C28  1  0.50000017  0.59475807  0.18810648  1
  C  C29  1  0.49999971  0.59481059  0.43523231  1
  C  C30  1  0.49999987  0.60150408  0.68859540  1
  C  C31  1  0.49999997  0.59778123  0.93791643  1
  C  C32  1  0.49999996  0.65936852  0.69720549  1
  C  C33  1  0.49999996  0.65207321  0.94212461  1
  C  C34  1  0.50000038  0.69609604  0.59016221  1
  C  C35  1  0.49999984  0.68355258  0.82944225  1
  C  C36  1  0.50000012  0.75066564  0.60792904  1
  C  C37  1  0.49999989  0.74093194  0.85014656  1
  C  C38  1  0.49999996  0.77341118  0.73307470  1
  C  C39  1  0.49999976  0.76490021  0.97474088  1
  H  H40  1  0.50000003  0.19236187  0.52023703  1
  H  H41  1  0.50000034  0.18405961  0.75500043  1
  H  H42  1  0.49999971  0.81593777  0.74503613  1
  H  H43  1  0.49999994  0.80763237  0.97981692  1
  H  H44  1  0.50000046  0.25570087  0.42893371  1
  H  H45  1  0.49999978  0.32870180  0.46037370  1
  H  H46  1  0.50000109  0.36353803  0.07603879  1
  H  H47  1  0.49999973  0.36268156  0.30629763  1
  H  H48  1  0.50000032  0.63731485  0.19370293  1
  H  H49  1  0.49999914  0.63646140  0.42387418  1
  H  H50  1  0.50000117  0.68549323  0.48519004  1
  H  H51  1  0.49999991  0.77510544  0.51728970  1
  H  H52  1  0.50000005  0.22489582  -0.01730986  1
  H  H53  1  0.49999861  0.31450563  0.01480122  1
  H  H54  1  0.50000019  0.67128987  0.03966301  1
  H  H55  1  0.49999952  0.74429053  0.07109233  1
