# generated using pymatgen
data_HC2
_symmetry_space_group_name_H-M   'P 1'
_cell_length_a   10.00000000
_cell_length_b   17.10430000
_cell_length_c   9.89132720
_cell_angle_alpha   90.00000000
_cell_angle_beta   90.00000000
_cell_angle_gamma   90.00000000
_symmetry_Int_Tables_number   1
_chemical_formula_structural   HC2
_chemical_formula_sum   'H10 C20'
_cell_volume   1691.84227774
_cell_formula_units_Z   10
loop_
 _symmetry_equiv_pos_site_id
 _symmetry_equiv_pos_as_xyz
  1  'x, y, z'
loop_
 _atom_site_type_symbol
 _atom_site_label
 _atom_site_symmetry_multiplicity
 _atom_site_fract_x
 _atom_site_fract_y
 _atom_site_fract_z
 _atom_site_occupancy
  C  C0  1  0.50000001  0.35042926  0.06515325  1
  C  C1  1  0.50000000  0.34849791  0.31937416  1
  C  C2  1  0.50000000  0.35318709  0.57035994  1
  C  C3  1  0.50000001  0.35430694  0.81708851  1
  C  C4  1  0.50000000  0.38694932  0.19276131  1
  C  C5  1  0.50000000  0.39014663  0.44289991  1
  C  C6  1  0.50000000  0.39498694  0.69339999  1
  C  C7  1  0.50000001  0.39313898  0.94202960  1
  C  C8  1  0.50000000  0.47160496  0.19309671  1
  C  C9  1  0.50000000  0.47537842  0.44135268  1
  C  C10  1  0.50000000  0.48061551  0.69373310  1
  C  C11  1  0.50000000  0.47888911  0.94330723  1
  C  C12  1  0.49999999  0.51338800  0.07080015  1
  C  C13  1  0.50000000  0.51259421  0.31556385  1
  C  C14  1  0.49999999  0.51876446  0.56525177  1
  C  C15  1  0.50000000  0.52319931  0.81839848  1
  C  C16  1  0.49999997  0.60222496  0.56242522  1
  C  C17  1  0.50000000  0.60996880  0.81223169  1
  C  C18  1  0.49999997  0.64429985  0.67841902  1
  C  C19  1  0.50000004  0.66669763  0.91175632  1
  H  H20  1  0.50000000  0.28629717  0.05968455  1
  H  H21  1  0.50000001  0.28434586  0.32233847  1
  H  H22  1  0.50000000  0.28904581  0.57479060  1
  H  H23  1  0.50000001  0.29015682  0.81521077  1
  H  H24  1  0.49999995  0.70832853  0.67336462  1
  H  H25  1  0.50000003  0.72777674  0.87764548  1
  H  H26  1  0.49999996  0.57623845  0.08134209  1
  H  H27  1  0.50000000  0.57635727  0.30890645  1
  H  H28  1  0.49999995  0.63364890  0.46638607  1
  H  H29  1  0.50000011  0.66011413  0.02092802  1
