# generated using pymatgen
data_H7C18
_symmetry_space_group_name_H-M   'P 1'
_cell_length_a   10.00000000
_cell_length_b   21.36688000
_cell_length_c   9.93211847
_cell_angle_alpha   90.00000000
_cell_angle_beta   90.00000000
_cell_angle_gamma   90.00000000
_symmetry_Int_Tables_number   1
_chemical_formula_structural   H7C18
_chemical_formula_sum   'H14 C36'
_cell_volume   2122.18383508
_cell_formula_units_Z   2
loop_
 _symmetry_equiv_pos_site_id
 _symmetry_equiv_pos_as_xyz
  1  'x, y, z'
loop_
 _atom_site_type_symbol
 _atom_site_label
 _atom_site_symmetry_multiplicity
 _atom_site_fract_x
 _atom_site_fract_y
 _atom_site_fract_z
 _atom_site_occupancy
  C  C0  1  0.49999900  0.76723937  0.53102294  1
  C  C1  1  0.49999897  0.77696507  0.77242728  1
  C  C2  1  0.50000159  0.21373095  0.59937765  1
  C  C3  1  0.49999906  0.23175610  0.83060516  1
  C  C4  1  0.50000054  0.25960704  0.69824242  1
  C  C5  1  0.49999905  0.26549311  0.94602842  1
  C  C6  1  0.50000016  0.33480732  0.19377480  1
  C  C7  1  0.50000008  0.33482794  0.44212186  1
  C  C8  1  0.50000068  0.32905123  0.69263763  1
  C  C9  1  0.50000008  0.33190763  0.94380213  1
  C  C10  1  0.50000042  0.36555369  0.06872916  1
  C  C11  1  0.50000039  0.36642650  0.31825161  1
  C  C12  1  0.50000055  0.36445208  0.56830498  1
  C  C13  1  0.50000058  0.36380572  0.81668636  1
  C  C14  1  0.50000086  0.43285869  0.06670215  1
  C  C15  1  0.50000079  0.43291203  0.31866787  1
  C  C16  1  0.50000045  0.43246723  0.56947622  1
  C  C17  1  0.50000065  0.43220775  0.81703673  1
  C  C18  1  0.50000094  0.46434197  0.19293627  1
  C  C19  1  0.50000046  0.46529654  0.44360152  1
  C  C20  1  0.50000032  0.46646301  0.69421155  1
  C  C21  1  0.50000080  0.46643740  0.94160787  1
  C  C22  1  0.50000037  0.53054468  0.19324732  1
  C  C23  1  0.50000007  0.53238785  0.44121753  1
  C  C24  1  0.50000004  0.53494397  0.69479586  1
  C  C25  1  0.50000036  0.53477483  0.94292860  1
  C  C26  1  0.49999969  0.56269159  0.07032692  1
  C  C27  1  0.50000000  0.56282717  0.31700999  1
  C  C28  1  0.49999976  0.56649758  0.56732198  1
  C  C29  1  0.50000013  0.57100005  0.81688982  1
  C  C30  1  0.49999926  0.63164515  0.56295740  1
  C  C31  1  0.50000007  0.64038004  0.80803545  1
  C  C32  1  0.49999941  0.66940349  0.67569632  1
  C  C33  1  0.50000072  0.68431090  0.91517110  1
  C  C34  1  0.49999913  0.73817300  0.65523015  1
  C  C35  1  0.49999983  0.74973643  0.89762130  1
  H  H36  1  0.49999880  0.81850533  0.52695175  1
  H  H37  1  0.49999843  0.82795616  0.76049967  1
  H  H38  1  0.50000050  0.16498056  0.63401369  1
  H  H39  1  0.49999832  0.18051835  0.83616219  1
  H  H40  1  0.49999913  0.74286800  0.43423953  1
  H  H41  1  0.50000372  0.21821209  0.49067724  1
  H  H42  1  0.49999971  0.28376541  0.19819530  1
  H  H43  1  0.49999916  0.28448708  0.43611889  1
  H  H44  1  0.49999789  0.61265122  0.08196755  1
  H  H45  1  0.49999970  0.61388386  0.31124996  1
  H  H46  1  0.49999877  0.65466718  0.46532708  1
  H  H47  1  0.49999836  0.24035000  0.04155727  1
  H  H48  1  0.50000231  0.67144811  0.02008721  1
  H  H49  1  0.49999995  0.77904467  -0.01174964  1
