# generated using pymatgen
data_H11C26
_symmetry_space_group_name_H-M   'P 1'
_cell_length_a   10.00000000
_cell_length_b   29.89204000
_cell_length_c   9.93175868
_cell_angle_alpha   90.00000000
_cell_angle_beta   90.00000000
_cell_angle_gamma   90.00000000
_symmetry_Int_Tables_number   1
_chemical_formula_structural   H11C26
_chemical_formula_sum   'H22 C52'
_cell_volume   2968.80527674
_cell_formula_units_Z   2
loop_
 _symmetry_equiv_pos_site_id
 _symmetry_equiv_pos_as_xyz
  1  'x, y, z'
loop_
 _atom_site_type_symbol
 _atom_site_label
 _atom_site_symmetry_multiplicity
 _atom_site_fract_x
 _atom_site_fract_y
 _atom_site_fract_z
 _atom_site_occupancy
  C  C0  1  0.49999989  0.83380097  0.46310114  1
  C  C1  1  0.50000005  0.84050850  0.70724930  1
  C  C2  1  0.49999536  0.15026941  0.63417116  1
  C  C3  1  0.50000173  0.16318956  0.86572105  1
  C  C4  1  0.49999908  0.18307306  0.73323718  1
  C  C5  1  0.50000146  0.18727415  0.98137705  1
  C  C6  1  0.50000068  0.23674662  0.22931244  1
  C  C7  1  0.50000233  0.23693060  0.47761182  1
  C  C8  1  0.49999937  0.23274562  0.72806985  1
  C  C9  1  0.49999977  0.23475637  0.97945139  1
  C  C10  1  0.49999945  0.25879664  0.10443361  1
  C  C11  1  0.50000008  0.25943134  0.35374441  1
  C  C12  1  0.50000006  0.25813494  0.60386929  1
  C  C13  1  0.49999905  0.25756633  0.85219752  1
  C  C14  1  0.49999864  0.30692529  0.10224850  1
  C  C15  1  0.49999830  0.30696282  0.35389595  1
  C  C16  1  0.49999930  0.30670443  0.60512884  1
  C  C17  1  0.49999866  0.30642269  0.85264541  1
  C  C18  1  0.49999864  0.32949160  0.22826498  1
  C  C19  1  0.49999919  0.33016005  0.47883887  1
  C  C20  1  0.49999936  0.33097916  0.72994830  1
  C  C21  1  0.49999862  0.33092697  0.97741431  1
  C  C22  1  0.50000366  0.37674436  0.22856783  1
  C  C23  1  0.50000058  0.37801500  0.47611253  1
  C  C24  1  0.49999956  0.37987814  0.73039181  1
  C  C25  1  0.50000202  0.37971931  0.97857838  1
  C  C26  1  0.50000981  0.39971319  0.10565680  1
  C  C27  1  0.50000375  0.39979171  0.35243789  1
  C  C28  1  0.50000013  0.40247527  0.60294243  1
  C  C29  1  0.49999959  0.40575821  0.85212461  1
  C  C30  1  0.50000154  0.44867785  0.59843612  1
  C  C31  1  0.49999711  0.45502274  0.84294884  1
  C  C32  1  0.50000072  0.47598456  0.71213836  1
  C  C33  1  0.49998923  0.48707214  0.95081023  1
  C  C34  1  0.50000141  0.52442109  0.69205384  1
  C  C35  1  0.49999453  0.53270613  0.93293728  1
  C  C36  1  0.50000114  0.54469804  0.56194956  1
  C  C37  1  0.50000131  0.55347500  0.80455671  1
  C  C38  1  0.50000090  0.59043461  0.54517313  1
  C  C39  1  0.50000175  0.60157063  0.78780460  1
  C  C40  1  0.50000118  0.62052908  0.65635498  1
  C  C41  1  0.50000136  0.63116417  0.90001514  1
  C  C42  1  0.50000053  0.66875424  0.63969510  1
  C  C43  1  0.50000056  0.67685687  0.88433350  1
  C  C44  1  0.50000012  0.68915905  0.51030337  1
  C  C45  1  0.50000030  0.69732831  0.75491502  1
  C  C46  1  0.49999987  0.73503130  0.49533784  1
  C  C47  1  0.50000000  0.74570271  0.73910502  1
  C  C48  1  0.49999991  0.76452413  0.60671588  1
  C  C49  1  0.50000001  0.77500341  0.85132536  1
  C  C50  1  0.49999994  0.81331726  0.58835630  1
  C  C51  1  0.50000005  0.82154727  0.83453908  1
  H  H52  1  0.49999997  0.87038399  0.45530849  1
  H  H53  1  0.50000015  0.87698677  0.69537525  1
  H  H54  1  0.49999716  0.11545688  0.66921197  1
  H  H55  1  0.50000237  0.12655629  0.87139074  1
  H  H56  1  0.49999979  0.81506299  0.36859694  1
  H  H57  1  0.49998877  0.15330230  0.52530361  1
  H  H58  1  0.50000196  0.20021522  0.23328343  1
  H  H59  1  0.50000762  0.20094570  0.47208560  1
  H  H60  1  0.50002531  0.43543984  0.11695955  1
  H  H61  1  0.50000526  0.43627479  0.34605563  1
  H  H62  1  0.50000257  0.46471683  0.50050187  1
  H  H63  1  0.50000048  0.52421841  0.47076869  1
  H  H64  1  0.50000021  0.60350135  0.44229070  1
  H  H65  1  0.50000010  0.66847545  0.41948091  1
  H  H66  1  0.49999972  0.74887627  0.39344342  1
  H  H67  1  0.50000214  0.16922087  0.07684476  1
  H  H68  1  0.49997288  0.47787590  0.05591050  1
  H  H69  1  0.49998992  0.55322542  0.02412904  1
  H  H70  1  0.50000169  0.61750663  0.00207141  1
  H  H71  1  0.50000010  0.69759716  -0.02496508  1
  H  H72  1  0.50000005  0.76163100  -0.04633273  1
  H  H73  1  0.50000013  0.84316742  -0.07626458  1
