# generated using pymatgen
data_H3C10
_symmetry_space_group_name_H-M   'P 1'
_cell_length_a   10.00000000
_cell_length_b   21.36688000
_cell_length_c   9.91068369
_cell_angle_alpha   90.00000000
_cell_angle_beta   90.00000000
_cell_angle_gamma   90.00000000
_symmetry_Int_Tables_number   1
_chemical_formula_structural   H3C10
_chemical_formula_sum   'H12 C40'
_cell_volume   2117.60389183
_cell_formula_units_Z   4
loop_
 _symmetry_equiv_pos_site_id
 _symmetry_equiv_pos_as_xyz
  1  'x, y, z'
loop_
 _atom_site_type_symbol
 _atom_site_label
 _atom_site_symmetry_multiplicity
 _atom_site_fract_x
 _atom_site_fract_y
 _atom_site_fract_z
 _atom_site_occupancy
  C  C0  1  0.49999872  0.78599785  0.58717627  1
  C  C1  1  0.49999916  0.76800091  0.81955261  1
  C  C2  1  0.50000125  0.21400212  0.58717605  1
  C  C3  1  0.50000086  0.23199953  0.81955370  1
  C  C4  1  0.50000126  0.25976307  0.68667940  1
  C  C5  1  0.50000056  0.26573874  0.93551333  1
  C  C6  1  0.50000021  0.33564527  0.18299309  1
  C  C7  1  0.50000031  0.33569276  0.42964239  1
  C  C8  1  0.50000104  0.32911855  0.68102908  1
  C  C9  1  0.50000058  0.33220631  0.93304551  1
  C  C10  1  0.50000033  0.36629204  0.05805576  1
  C  C11  1  0.50000018  0.36813711  0.30650324  1
  C  C12  1  0.50000062  0.36456644  0.55627583  1
  C  C13  1  0.50000079  0.36378833  0.80535014  1
  C  C14  1  0.50000020  0.43355811  0.05613513  1
  C  C15  1  0.50000016  0.43478742  0.30679196  1
  C  C16  1  0.50000037  0.43248255  0.55756962  1
  C  C17  1  0.50000043  0.43202033  0.80566421  1
  C  C18  1  0.50000008  0.46669645  0.18070623  1
  C  C19  1  0.50000012  0.46644024  0.43320613  1
  C  C20  1  0.50000022  0.46609443  0.68204077  1
  C  C21  1  0.50000016  0.46623580  0.93015765  1
  C  C22  1  0.49999991  0.53330355  0.18070612  1
  C  C23  1  0.49999987  0.53355976  0.43320612  1
  C  C24  1  0.49999977  0.53390557  0.68204083  1
  C  C25  1  0.49999984  0.53376419  0.93015769  1
  C  C26  1  0.49999979  0.56644181  0.05613519  1
  C  C27  1  0.49999984  0.56521257  0.30679206  1
  C  C28  1  0.49999963  0.56751743  0.55756955  1
  C  C29  1  0.49999956  0.56797964  0.80566408  1
  C  C30  1  0.49999967  0.63370801  0.05805569  1
  C  C31  1  0.49999982  0.63186294  0.30650313  1
  C  C32  1  0.49999938  0.63543357  0.55627585  1
  C  C33  1  0.49999921  0.63621165  0.80535038  1
  C  C34  1  0.49999978  0.66435471  0.18299322  1
  C  C35  1  0.49999970  0.66430725  0.42964242  1
  C  C36  1  0.49999896  0.67088145  0.68102893  1
  C  C37  1  0.49999943  0.66779371  0.93304531  1
  C  C38  1  0.49999874  0.74023696  0.68667945  1
  C  C39  1  0.49999947  0.73426100  0.93551465  1
  H  H40  1  0.49999870  0.83479057  0.62174437  1
  H  H41  1  0.49999937  0.81921571  0.82463494  1
  H  H42  1  0.50000129  0.16520944  0.62174436  1
  H  H43  1  0.50000065  0.18078415  0.82463490  1
  H  H44  1  0.49999887  0.78122192  0.47815024  1
  H  H45  1  0.50000106  0.21877810  0.47815033  1
  H  H46  1  0.50000035  0.28455378  0.18843753  1
  H  H47  1  0.50000013  0.28537729  0.42176356  1
  H  H48  1  0.49999963  0.71544624  0.18843751  1
  H  H49  1  0.49999991  0.71462272  0.42176354  1
  H  H50  1  0.50000025  0.24046410  0.03118010  1
  H  H51  1  0.49999980  0.75953584  0.03117985  1
