# generated using pymatgen
data_HC2
_symmetry_space_group_name_H-M   'P 1'
_cell_length_a   10.00000000
_cell_length_b   29.89204000
_cell_length_c   10.00291747
_cell_angle_alpha   90.00000000
_cell_angle_beta   90.00000000
_cell_angle_gamma   90.00000000
_symmetry_Int_Tables_number   1
_chemical_formula_structural   HC2
_chemical_formula_sum   'H24 C48'
_cell_volume   2990.07609196
_cell_formula_units_Z   24
loop_
 _symmetry_equiv_pos_site_id
 _symmetry_equiv_pos_as_xyz
  1  'x, y, z'
loop_
 _atom_site_type_symbol
 _atom_site_label
 _atom_site_symmetry_multiplicity
 _atom_site_fract_x
 _atom_site_fract_y
 _atom_site_fract_z
 _atom_site_occupancy
  C  C0  1  0.49999875  0.83220410  0.47091577  1
  C  C1  1  0.50000045  0.83951881  0.71250894  1
  C  C2  1  0.50000643  0.16641876  0.57243620  1
  C  C3  1  0.50001032  0.15736674  0.81223126  1
  C  C4  1  0.50000851  0.18589300  0.69786845  1
  C  C5  1  0.49997555  0.17612489  0.93777556  1
  C  C6  1  0.50000332  0.23475773  0.72149128  1
  C  C7  1  0.49994251  0.22273949  0.95826807  1
  C  C8  1  0.50001072  0.26202495  0.61022804  1
  C  C9  1  0.49997773  0.25488017  0.85318691  1
  C  C10  1  0.50002208  0.30953868  0.11417864  1
  C  C11  1  0.49999771  0.30872043  0.36274280  1
  C  C12  1  0.50000110  0.30837655  0.61394360  1
  C  C13  1  0.49998727  0.30446859  0.86236758  1
  C  C14  1  0.50000600  0.33130483  0.23896028  1
  C  C15  1  0.50000164  0.33149125  0.48502840  1
  C  C16  1  0.49999764  0.33059858  0.74178196  1
  C  C17  1  0.49999726  0.33024308  0.98821944  1
  C  C18  1  0.50004055  0.37869787  0.23887097  1
  C  C19  1  0.50001054  0.37935792  0.48471059  1
  C  C20  1  0.49999807  0.37978550  0.74177226  1
  C  C21  1  0.50002162  0.37952335  0.98827980  1
  C  C22  1  0.50010203  0.40017844  0.11399017  1
  C  C23  1  0.50003669  0.40177694  0.36216996  1
  C  C24  1  0.50000376  0.40250799  0.61422948  1
  C  C25  1  0.49999374  0.40564079  0.86262411  1
  C  C26  1  0.50001750  0.44866365  0.61115019  1
  C  C27  1  0.49996371  0.45496853  0.85405524  1
  C  C28  1  0.50000547  0.47586607  0.72437254  1
  C  C29  1  0.49987865  0.48708719  0.96102665  1
  C  C30  1  0.50001431  0.52422670  0.70467827  1
  C  C31  1  0.49994270  0.53266897  0.94357418  1
  C  C32  1  0.50000922  0.54426106  0.57537169  1
  C  C33  1  0.50001668  0.55329878  0.81624327  1
  C  C34  1  0.50000679  0.58991231  0.55862610  1
  C  C35  1  0.50002223  0.60126924  0.79959435  1
  C  C36  1  0.50001313  0.61998175  0.66891314  1
  C  C37  1  0.50002039  0.63106590  0.91061370  1
  C  C38  1  0.50000586  0.66801275  0.65124884  1
  C  C39  1  0.50001166  0.67671068  0.89392083  1
  C  C40  1  0.49999968  0.68778080  0.52203318  1
  C  C41  1  0.50000564  0.69679501  0.76489044  1
  C  C42  1  0.49999707  0.73352255  0.50541560  1
  C  C43  1  0.50000128  0.74505944  0.74756313  1
  C  C44  1  0.49999880  0.76330394  0.61532496  1
  C  C45  1  0.50000078  0.77473045  0.85810361  1
  C  C46  1  0.49999922  0.81189417  0.59549048  1
  C  C47  1  0.50000027  0.82120003  0.83969712  1
  H  H48  1  0.49999910  0.86880482  0.46468140  1
  H  H49  1  0.50000192  0.87591688  0.69888443  1
  H  H50  1  0.50000853  0.12986629  0.56441640  1
  H  H51  1  0.50002270  0.12104238  0.79751588  1
  H  H52  1  0.49999741  0.81379918  0.37644559  1
  H  H53  1  0.49999901  0.18493295  0.47815372  1
  H  H54  1  0.50002170  0.24580394  0.51329253  1
  H  H55  1  0.50008217  0.27371202  0.12247013  1
  H  H56  1  0.49998948  0.27220971  0.35875083  1
  H  H57  1  0.50027034  0.43594346  0.12173241  1
  H  H58  1  0.50004327  0.43832459  0.35647710  1
  H  H59  1  0.50003139  0.46481276  0.51406731  1
  H  H60  1  0.49999956  0.52372569  0.48501642  1
  H  H61  1  0.49999672  0.60288421  0.45649522  1
  H  H62  1  0.49999865  0.66658266  0.43299716  1
  H  H63  1  0.49999464  0.74687167  0.40362291  1
  H  H64  1  0.49996343  0.15455239  0.02645666  1
  H  H65  1  0.49986413  0.23118706  0.06316948  1
  H  H66  1  0.49969797  0.47817238  0.06548430  1
  H  H67  1  0.49989635  0.55324773  0.03403761  1
  H  H68  1  0.50002662  0.61778319  0.01242093  1
  H  H69  1  0.50001020  0.69771980  -0.01663083  1
  H  H70  1  0.50000119  0.76163725  -0.03991089  1
  H  H71  1  0.50000047  0.84325424  -0.07273474  1
