# generated using pymatgen
data_H5C12
_symmetry_space_group_name_H-M   'P 1'
_cell_length_a   10.00000000
_cell_length_b   29.89204000
_cell_length_c   9.94104685
_cell_angle_alpha   90.00000000
_cell_angle_beta   90.00000000
_cell_angle_gamma   90.00000000
_symmetry_Int_Tables_number   1
_chemical_formula_structural   H5C12
_chemical_formula_sum   'H20 C48'
_cell_volume   2971.58170059
_cell_formula_units_Z   4
loop_
 _symmetry_equiv_pos_site_id
 _symmetry_equiv_pos_as_xyz
  1  'x, y, z'
loop_
 _atom_site_type_symbol
 _atom_site_label
 _atom_site_symmetry_multiplicity
 _atom_site_fract_x
 _atom_site_fract_y
 _atom_site_fract_z
 _atom_site_occupancy
  C  C0  1  0.49999994  0.18880180  0.66180000  1
  C  C1  1  0.49999996  0.20095520  0.90359284  1
  C  C2  1  0.50000001  0.21834412  0.76932462  1
  C  C3  1  0.50000002  0.22897260  1.01457610  1
  C  C4  1  0.50000018  0.26714071  0.75353975  1
  C  C5  1  0.50000015  0.27553125  0.99905855  1
  C  C6  1  0.50000034  0.28734844  0.62480024  1
  C  C7  1  0.50000027  0.29541854  0.86974557  1
  C  C8  1  0.50000067  0.33314210  0.60870939  1
  C  C9  1  0.50000050  0.34364979  0.85246056  1
  C  C10  1  0.50000078  0.36260331  0.72108232  1
  C  C11  1  0.50000025  0.37359631  0.96358123  1
  C  C12  1  0.50000059  0.41060975  0.70477517  1
  C  C13  1  0.50000033  0.41935407  0.94727517  1
  C  C14  1  0.49999760  0.43127295  0.57664239  1
  C  C15  1  0.50000057  0.43955700  0.81726943  1
  C  C16  1  0.49999520  0.47687053  0.55894535  1
  C  C17  1  0.50000036  0.48797572  0.79732896  1
  C  C18  1  0.49999879  0.50888947  0.66667624  1
  C  C19  1  0.50000084  0.51518258  0.91111191  1
  C  C20  1  0.50000202  0.56390534  0.15691107  1
  C  C21  1  0.50000463  0.56393616  0.40362192  1
  C  C22  1  0.50000003  0.55809105  0.65738225  1
  C  C23  1  0.50000032  0.56135608  0.90656169  1
  C  C24  1  0.50000057  0.58573992  0.03338117  1
  C  C25  1  0.50000196  0.58692045  0.28079607  1
  C  C26  1  0.50000111  0.58392256  0.53076117  1
  C  C27  1  0.50000009  0.58395826  0.77913353  1
  C  C28  1  0.49999986  0.63360820  0.03078284  1
  C  C29  1  0.49999967  0.63418881  0.28104814  1
  C  C30  1  0.49999951  0.63270034  0.53209467  1
  C  C31  1  0.49999997  0.63280009  0.77970360  1
  C  C32  1  0.49999937  0.65674941  0.15562490  1
  C  C33  1  0.49999944  0.65667993  0.40717797  1
  C  C34  1  0.49999948  0.65718172  0.65686936  1
  C  C35  1  0.49999982  0.65706596  0.90456183  1
  C  C36  1  0.49999902  0.70427532  0.15586328  1
  C  C37  1  0.49999932  0.70477530  0.40510028  1
  C  C38  1  0.49999954  0.70598641  0.65723588  1
  C  C39  1  0.49999952  0.70563385  0.90582306  1
  C  C40  1  0.49999893  0.72683739  0.03216488  1
  C  C41  1  0.49999911  0.72686907  0.28033320  1
  C  C42  1  0.49999948  0.72874973  0.53001294  1
  C  C43  1  0.49999978  0.73081637  0.78119536  1
  C  C44  1  0.49999944  0.77620106  0.52767511  1
  C  C45  1  0.50000013  0.78040875  0.77555428  1
  C  C46  1  0.49999956  0.80026814  0.64314645  1
  C  C47  1  0.50000121  0.81334529  0.87406676  1
  H  H48  1  0.49999983  0.15264072  0.67997101  1
  H  H49  1  0.49999990  0.16454304  0.91663521  1
  H  H50  1  0.49999962  0.83687474  0.63778850  1
  H  H51  1  0.50000088  0.84799560  0.83772236  1
  H  H52  1  0.49999996  0.19960377  0.55676727  1
  H  H53  1  0.50000022  0.26628843  0.53464896  1
  H  H54  1  0.50000088  0.34660564  0.50649402  1
  H  H55  1  0.49999555  0.41067207  0.48571482  1
  H  H56  1  0.49998775  0.48599216  0.45399111  1
  H  H57  1  0.50000274  0.52741926  0.16345087  1
  H  H58  1  0.50001161  0.52822047  0.39194589  1
  H  H59  1  0.49999808  0.76282557  0.03844115  1
  H  H60  1  0.49999917  0.76338519  0.27607477  1
  H  H61  1  0.49999941  0.79415032  0.43208661  1
  H  H62  1  0.50000000  0.21456156  0.11593572  1
  H  H63  1  0.50000023  0.29640620  0.08925599  1
  H  H64  1  0.49999988  0.36025213  0.06599482  1
  H  H65  1  0.49999993  0.43975937  0.03851166  1
  H  H66  1  0.50000129  0.49904142  0.00883131  1
  H  H67  1  0.50000283  0.81056684  -0.01714145  1
