# generated using pymatgen
data_H5C26
_symmetry_space_group_name_H-M   'P 1'
_cell_length_a   10.00000000
_cell_length_b   25.62946000
_cell_length_c   9.88204590
_cell_angle_alpha   90.00000000
_cell_angle_beta   90.00000000
_cell_angle_gamma   90.00000000
_symmetry_Int_Tables_number   1
_chemical_formula_structural   H5C26
_chemical_formula_sum   'H10 C52'
_cell_volume   2532.71499999
_cell_formula_units_Z   2
loop_
 _symmetry_equiv_pos_site_id
 _symmetry_equiv_pos_as_xyz
  1  'x, y, z'
loop_
 _atom_site_type_symbol
 _atom_site_label
 _atom_site_symmetry_multiplicity
 _atom_site_fract_x
 _atom_site_fract_y
 _atom_site_fract_z
 _atom_site_occupancy
  C  C0  1  0.50000023  0.23494496  0.06478439  1
  C  C1  1  0.49999936  0.23496772  0.31477501  1
  C  C2  1  0.49999978  0.23494630  0.56480589  1
  C  C3  1  0.50000115  0.23492391  0.81482147  1
  C  C4  1  0.49999953  0.26157368  0.18975691  1
  C  C5  1  0.49999941  0.26155028  0.43980566  1
  C  C6  1  0.50000054  0.26152617  0.68985667  1
  C  C7  1  0.50000054  0.26155788  0.93980774  1
  C  C8  1  0.49999961  0.31803492  0.18977689  1
  C  C9  1  0.49999974  0.31800759  0.43988381  1
  C  C10  1  0.50000025  0.31797574  0.68990584  1
  C  C11  1  0.50000005  0.31801288  0.93979012  1
  C  C12  1  0.49999982  0.34565377  0.06474453  1
  C  C13  1  0.49999980  0.34564811  0.31490835  1
  C  C14  1  0.50000010  0.34562496  0.56498172  1
  C  C15  1  0.50000003  0.34564163  0.81479787  1
  C  C16  1  0.49999992  0.40158436  0.06472616  1
  C  C17  1  0.50000012  0.40157741  0.31504066  1
  C  C18  1  0.50000021  0.40155268  0.56516067  1
  C  C19  1  0.49999980  0.40159405  0.81481259  1
  C  C20  1  0.50000007  0.42920421  0.18979126  1
  C  C21  1  0.50000021  0.42924374  0.44025329  1
  C  C22  1  0.49999995  0.42939912  0.69005566  1
  C  C23  1  0.49999984  0.42932170  0.93969932  1
  C  C24  1  0.49999995  0.48497584  0.18959148  1
  C  C25  1  0.49999994  0.48507564  0.44058374  1
  C  C26  1  0.49999983  0.48534477  0.69024674  1
  C  C27  1  0.49999980  0.48517268  0.93942819  1
  C  C28  1  0.49999985  0.51268927  0.06426558  1
  C  C29  1  0.49999995  0.51234130  0.31529193  1
  C  C30  1  0.49999977  0.51319924  0.56555939  1
  C  C31  1  0.49999977  0.51329602  0.81479617  1
  C  C32  1  0.49999993  0.56850039  0.06405079  1
  C  C33  1  0.50000012  0.56795930  0.31559547  1
  C  C34  1  0.49999972  0.56920249  0.56597728  1
  C  C35  1  0.49999968  0.56942014  0.81485550  1
  C  C36  1  0.50000025  0.59493027  0.19011167  1
  C  C37  1  0.50000011  0.59603275  0.43997017  1
  C  C38  1  0.49999960  0.59770897  0.69077276  1
  C  C39  1  0.49999976  0.59709056  0.93965215  1
  C  C40  1  0.50000037  0.65044705  0.19028698  1
  C  C41  1  0.50000039  0.65201344  0.43840632  1
  C  C42  1  0.49999967  0.65441239  0.69131005  1
  C  C43  1  0.49999973  0.65361505  0.94060701  1
  C  C44  1  0.49999995  0.67768561  0.06727724  1
  C  C45  1  0.50000050  0.67758191  0.31356987  1
  C  C46  1  0.50000014  0.68060138  0.56337811  1
  C  C47  1  0.49999954  0.68327946  0.81589682  1
  C  C48  1  0.50000020  0.73600132  0.56071321  1
  C  C49  1  0.49999960  0.74105988  0.81029119  1
  C  C50  1  0.49999992  0.76417405  0.67699158  1
  C  C51  1  0.49999976  0.77925336  0.91004909  1
  H  H52  1  0.50000058  0.19213730  0.06473132  1
  H  H53  1  0.49999952  0.19216981  0.31473768  1
  H  H54  1  0.49999945  0.19215267  0.56471406  1
  H  H55  1  0.50000170  0.19212032  0.81463500  1
  H  H56  1  0.50000023  0.80689703  0.67183825  1
  H  H57  1  0.49999998  0.81989467  0.87517154  1
  H  H58  1  0.49999961  0.71961248  0.07570839  1
  H  H59  1  0.50000065  0.72012785  0.30801612  1
  H  H60  1  0.50000044  0.75706746  0.46476496  1
  H  H61  1  0.50000001  0.77542557  0.01941371  1
