# generated using pymatgen
data_HC3
_symmetry_space_group_name_H-M   'P 1'
_cell_length_a   10.00000000
_cell_length_b   25.62946000
_cell_length_c   9.89497839
_cell_angle_alpha   90.00000000
_cell_angle_beta   90.00000000
_cell_angle_gamma   90.00000000
_symmetry_Int_Tables_number   1
_chemical_formula_structural   HC3
_chemical_formula_sum   'H16 C48'
_cell_volume   2536.02952721
_cell_formula_units_Z   16
loop_
 _symmetry_equiv_pos_site_id
 _symmetry_equiv_pos_as_xyz
  1  'x, y, z'
loop_
 _atom_site_type_symbol
 _atom_site_label
 _atom_site_symmetry_multiplicity
 _atom_site_fract_x
 _atom_site_fract_y
 _atom_site_fract_z
 _atom_site_occupancy
  C  C0  1  0.49999773  0.80456557  0.49459493  1
  C  C1  1  0.50000191  0.81247755  0.73994458  1
  C  C2  1  0.49999196  0.19160363  0.08579891  1
  C  C3  1  0.49999232  0.19164183  0.33656701  1
  C  C4  1  0.49999158  0.19175486  0.58691099  1
  C  C5  1  0.49999108  0.19183280  0.83599817  1
  C  C6  1  0.49999415  0.21806149  0.21101650  1
  C  C7  1  0.49999408  0.21816997  0.46175436  1
  C  C8  1  0.49999358  0.21858270  0.71149681  1
  C  C9  1  0.49999398  0.21831055  0.96101892  1
  C  C10  1  0.49999848  0.27444531  0.21076303  1
  C  C11  1  0.49999850  0.27460026  0.46198215  1
  C  C12  1  0.49999847  0.27514917  0.71162964  1
  C  C13  1  0.49999882  0.27480395  0.96069937  1
  C  C14  1  0.50000055  0.30210517  0.08526616  1
  C  C15  1  0.50000077  0.30150286  0.33665680  1
  C  C16  1  0.50000042  0.30276778  0.58695789  1
  C  C17  1  0.50000098  0.30289295  0.83606816  1
  C  C18  1  0.50000335  0.35816540  0.08444046  1
  C  C19  1  0.50000399  0.35719372  0.33670599  1
  C  C20  1  0.50000320  0.35882685  0.58730855  1
  C  C21  1  0.50000403  0.35912993  0.83589001  1
  C  C22  1  0.50000401  0.38402572  0.21117053  1
  C  C23  1  0.50000435  0.38543233  0.46056180  1
  C  C24  1  0.50000385  0.38727604  0.71201827  1
  C  C25  1  0.50000462  0.38713110  0.96049076  1
  C  C26  1  0.49999878  0.43920571  0.21136648  1
  C  C27  1  0.50000412  0.44120862  0.45818126  1
  C  C28  1  0.50000473  0.44406865  0.71275765  1
  C  C29  1  0.50000073  0.44391094  0.96166195  1
  C  C30  1  0.49998953  0.46671966  0.08914357  1
  C  C31  1  0.49999995  0.46652366  0.33438509  1
  C  C32  1  0.50000461  0.47015727  0.58482995  1
  C  C33  1  0.50000476  0.47415765  0.83486665  1
  C  C34  1  0.50000198  0.52404294  0.57999645  1
  C  C35  1  0.50000839  0.53139758  0.82549541  1
  C  C36  1  0.50000198  0.55581131  0.69422539  1
  C  C37  1  0.50002114  0.56859576  0.93397154  1
  C  C38  1  0.49999916  0.61229547  0.67450106  1
  C  C39  1  0.50001138  0.62180524  0.91622840  1
  C  C40  1  0.49999859  0.63578078  0.54417152  1
  C  C41  1  0.49999898  0.64602790  0.78779327  1
  C  C42  1  0.49999813  0.68928818  0.52795683  1
  C  C43  1  0.49999757  0.70227289  0.77200076  1
  C  C44  1  0.49999783  0.72405124  0.63894439  1
  C  C45  1  0.49999891  0.73619717  0.88493428  1
  C  C46  1  0.49999912  0.78084039  0.62046435  1
  C  C47  1  0.50000161  0.79044898  0.86789574  1
  H  H48  1  0.49999868  0.84720838  0.48678794  1
  H  H49  1  0.50000406  0.85501122  0.72787002  1
  H  H50  1  0.49998845  0.14879293  0.08521956  1
  H  H51  1  0.49998962  0.14882239  0.33651548  1
  H  H52  1  0.49998830  0.14894733  0.58746595  1
  H  H53  1  0.49998711  0.14903380  0.83552068  1
  H  H54  1  0.49999539  0.78261795  0.39982819  1
  H  H55  1  0.49996684  0.50829032  0.10275165  1
  H  H56  1  0.49999869  0.50905261  0.32723632  1
  H  H57  1  0.50000082  0.54284254  0.48180103  1
  H  H58  1  0.49999994  0.61190295  0.45265425  1
  H  H59  1  0.49999895  0.70492030  0.42502676  1
  H  H60  1  0.50004881  0.55775354  0.03931347  1
  H  H61  1  0.50001936  0.64581431  0.00751168  1
  H  H62  1  0.49999860  0.72037646  -0.01252034  1
  H  H63  1  0.50000361  0.81556784  -0.04246536  1
