# generated using pymatgen
data_H7C30
_symmetry_space_group_name_H-M   'P 1'
_cell_length_a   10.00000000
_cell_length_b   29.89204000
_cell_length_c   9.90297405
_cell_angle_alpha   90.00000000
_cell_angle_beta   90.00000000
_cell_angle_gamma   90.00000000
_symmetry_Int_Tables_number   1
_chemical_formula_structural   H7C30
_chemical_formula_sum   'H14 C60'
_cell_volume   2960.20096291
_cell_formula_units_Z   2
loop_
 _symmetry_equiv_pos_site_id
 _symmetry_equiv_pos_as_xyz
  1  'x, y, z'
loop_
 _atom_site_type_symbol
 _atom_site_label
 _atom_site_symmetry_multiplicity
 _atom_site_fract_x
 _atom_site_fract_y
 _atom_site_fract_z
 _atom_site_occupancy
  C  C0  1  0.49999996  0.18788751  0.58637752  1
  C  C1  1  0.50000002  0.20069565  0.81904543  1
  C  C2  1  0.49999999  0.22053086  0.68611959  1
  C  C3  1  0.50000001  0.22492088  0.93497934  1
  C  C4  1  0.50000002  0.27486148  0.18216787  1
  C  C5  1  0.50000002  0.27476167  0.42833907  1
  C  C6  1  0.50000000  0.27000176  0.68008001  1
  C  C7  1  0.50000000  0.27236285  0.93228918  1
  C  C8  1  0.50000001  0.29679557  0.05733501  1
  C  C9  1  0.50000001  0.29813427  0.30538418  1
  C  C10  1  0.50000000  0.29536263  0.55507861  1
  C  C11  1  0.50000000  0.29477707  0.80438958  1
  C  C12  1  0.50000000  0.34479914  0.05567219  1
  C  C13  1  0.50000000  0.34575260  0.30549997  1
  C  C14  1  0.50000000  0.34383167  0.55595959  1
  C  C15  1  0.50000000  0.34337499  0.80469019  1
  C  C16  1  0.50000000  0.36888681  0.17997086  1
  C  C17  1  0.50000000  0.36838583  0.43150791  1
  C  C18  1  0.49999999  0.36759754  0.68058733  1
  C  C19  1  0.50000000  0.36773624  0.92934278  1
  C  C20  1  0.49999999  0.41657764  0.17977109  1
  C  C21  1  0.50000000  0.41626026  0.43105148  1
  C  C22  1  0.49999999  0.41571485  0.68038752  1
  C  C23  1  0.49999999  0.41574275  0.92915201  1
  C  C24  1  0.49999999  0.43987198  0.05408591  1
  C  C25  1  0.50000000  0.43995350  0.30553536  1
  C  C26  1  0.49999999  0.43984922  0.55584426  1
  C  C27  1  0.49999999  0.43978834  0.80455466  1
  C  C28  1  0.50000000  0.48769739  0.05382438  1
  C  C29  1  0.50000000  0.48766718  0.30527335  1
  C  C30  1  0.50000000  0.48777022  0.55552344  1
  C  C31  1  0.50000000  0.48791105  0.80426259  1
  C  C32  1  0.50000000  0.51093275  0.17917308  1
  C  C33  1  0.50000000  0.51137573  0.43072604  1
  C  C34  1  0.50000000  0.51197476  0.67989103  1
  C  C35  1  0.50000000  0.51190520  0.92868128  1
  C  C36  1  0.50000000  0.55852668  0.17860844  1
  C  C37  1  0.50000000  0.55927426  0.43090116  1
  C  C38  1  0.50000001  0.56012141  0.67954462  1
  C  C39  1  0.50000000  0.55991992  0.92793985  1
  C  C40  1  0.50000000  0.58276355  0.05440446  1
  C  C41  1  0.50000000  0.58150850  0.30406273  1
  C  C42  1  0.50000001  0.58413990  0.55493266  1
  C  C43  1  0.50000000  0.58442538  0.80313036  1
  C  C44  1  0.50000000  0.63063626  0.05617488  1
  C  C45  1  0.49999998  0.62883021  0.30333116  1
  C  C46  1  0.50000000  0.63278719  0.55331016  1
  C  C47  1  0.50000001  0.63309419  0.80198191  1
  C  C48  1  0.49999999  0.65232369  0.18042965  1
  C  C49  1  0.49999995  0.65235540  0.42555463  1
  C  C50  1  0.50000002  0.65882646  0.67928090  1
  C  C51  1  0.50000000  0.65539931  0.92986304  1
  C  C52  1  0.50000003  0.70829444  0.68762057  1
  C  C53  1  0.49999999  0.70189357  0.93380969  1
  C  C54  1  0.50000008  0.73980272  0.57990533  1
  C  C55  1  0.50000000  0.72884259  0.82032886  1
  C  C56  1  0.50000005  0.78652896  0.59803264  1
  C  C57  1  0.50000000  0.77798828  0.84098706  1
  C  C58  1  0.50000001  0.80588597  0.72380779  1
  C  C59  1  0.49999997  0.79849116  0.96595396  1
  H  H60  1  0.49999997  0.15301990  0.62077759  1
  H  H61  1  0.50000002  0.16407550  0.82426226  1
  H  H62  1  0.50000001  0.84230645  0.73599813  1
  H  H63  1  0.49999996  0.83512224  0.97055800  1
  H  H64  1  0.49999989  0.19155004  0.47743634  1
  H  H65  1  0.50000002  0.23835504  0.18809747  1
  H  H66  1  0.50000005  0.23879519  0.41994557  1
  H  H67  1  0.49999999  0.68881157  0.18742021  1
  H  H68  1  0.49999987  0.68799150  0.41222066  1
  H  H69  1  0.50000017  0.73057439  0.47461633  1
  H  H70  1  0.50000007  0.80776676  0.50774156  1
  H  H71  1  0.50000002  0.20707254  0.03098814  1
  H  H72  1  0.49999998  0.71847626  0.03135531  1
  H  H73  1  0.49999994  0.78057609  0.06213224  1
