# generated using pymatgen
data_H2C7
_symmetry_space_group_name_H-M   'P 1'
_cell_length_a   10.00000000
_cell_length_b   29.89204000
_cell_length_c   9.91016468
_cell_angle_alpha   90.00000000
_cell_angle_beta   90.00000000
_cell_angle_gamma   90.00000000
_symmetry_Int_Tables_number   1
_chemical_formula_structural   H2C7
_chemical_formula_sum   'H16 C56'
_cell_volume   2962.35039103
_cell_formula_units_Z   8
loop_
 _symmetry_equiv_pos_site_id
 _symmetry_equiv_pos_as_xyz
  1  'x, y, z'
loop_
 _atom_site_type_symbol
 _atom_site_label
 _atom_site_symmetry_multiplicity
 _atom_site_fract_x
 _atom_site_fract_y
 _atom_site_fract_z
 _atom_site_occupancy
  C  C0  1  0.50000023  0.18759540  0.63105960  1
  C  C1  1  0.50000007  0.19980851  0.87358424  1
  C  C2  1  0.50000018  0.21714028  0.73873019  1
  C  C3  1  0.49999996  0.22810984  0.98395239  1
  C  C4  1  0.50000014  0.26593269  0.72365150  1
  C  C5  1  0.49999999  0.27478690  0.96790577  1
  C  C6  1  0.49999964  0.28680418  0.59646977  1
  C  C7  1  0.50000009  0.29472611  0.83826173  1
  C  C8  1  0.49999920  0.33263060  0.57904659  1
  C  C9  1  0.50000005  0.34342944  0.81860455  1
  C  C10  1  0.49999979  0.36437651  0.68729500  1
  C  C11  1  0.50000011  0.37067872  0.93250915  1
  C  C12  1  0.50000030  0.42002893  0.17842347  1
  C  C13  1  0.50000078  0.41993179  0.42377024  1
  C  C14  1  0.49999998  0.41355331  0.67796456  1
  C  C15  1  0.50000001  0.41692602  0.92787180  1
  C  C16  1  0.50000005  0.44168738  0.05450683  1
  C  C17  1  0.50000032  0.44343493  0.30150632  1
  C  C18  1  0.50000017  0.43949435  0.55134062  1
  C  C19  1  0.49999997  0.43934720  0.80009254  1
  C  C20  1  0.49999996  0.48946474  0.05206734  1
  C  C21  1  0.49999995  0.49071473  0.30186402  1
  C  C22  1  0.49999991  0.48811045  0.55270739  1
  C  C23  1  0.49999996  0.48798648  0.80084455  1
  C  C24  1  0.49999991  0.51360473  0.17613081  1
  C  C25  1  0.49999992  0.51288295  0.42874360  1
  C  C26  1  0.49999990  0.51222505  0.67715100  1
  C  C27  1  0.49999996  0.51234670  0.92548400  1
  C  C28  1  0.49999992  0.56114545  0.17606668  1
  C  C29  1  0.49999993  0.56076567  0.42844008  1
  C  C30  1  0.49999993  0.56039587  0.67721667  1
  C  C31  1  0.49999996  0.56030883  0.92550550  1
  C  C32  1  0.49999996  0.58433359  0.05045705  1
  C  C33  1  0.49999995  0.58408770  0.30264101  1
  C  C34  1  0.49999995  0.58463922  0.55303521  1
  C  C35  1  0.49999997  0.58446917  0.80129008  1
  C  C36  1  0.49999999  0.63216332  0.05049183  1
  C  C37  1  0.49999998  0.63169022  0.30251439  1
  C  C38  1  0.49999998  0.63264451  0.55291400  1
  C  C39  1  0.50000000  0.63268011  0.80146832  1
  C  C40  1  0.49999999  0.65471054  0.17679554  1
  C  C41  1  0.49999999  0.65564696  0.42694750  1
  C  C42  1  0.50000000  0.65696114  0.67769374  1
  C  C43  1  0.50000001  0.65660152  0.92606763  1
  C  C44  1  0.49999996  0.70233172  0.17706986  1
  C  C45  1  0.49999998  0.70365295  0.42528310  1
  C  C46  1  0.50000000  0.70558948  0.67812215  1
  C  C47  1  0.49999999  0.70508010  0.92736204  1
  C  C48  1  0.49999993  0.72566571  0.05418157  1
  C  C49  1  0.49999996  0.72552746  0.30047070  1
  C  C50  1  0.49999998  0.72805695  0.55028604  1
  C  C51  1  0.50000001  0.73035803  0.80249697  1
  C  C52  1  0.49999995  0.77553084  0.54787816  1
  C  C53  1  0.50000002  0.77987519  0.79673540  1
  C  C54  1  0.49999994  0.79967774  0.66382671  1
  C  C55  1  0.50000013  0.81259653  0.89622358  1
  H  H56  1  0.50000017  0.15149783  0.65043425  1
  H  H57  1  0.50000003  0.16341810  0.88746203  1
  H  H58  1  0.49999993  0.83629038  0.65820764  1
  H  H59  1  0.50000007  0.84742532  0.86136024  1
  H  H60  1  0.50000030  0.19816589  0.52543440  1
  H  H61  1  0.49999936  0.26618303  0.50516221  1
  H  H62  1  0.49999792  0.34218955  0.47411533  1
  H  H63  1  0.50000040  0.38355814  0.18534927  1
  H  H64  1  0.50000197  0.38428396  0.41045139  1
  H  H65  1  0.49999982  0.76164771  0.06239388  1
  H  H66  1  0.49999994  0.76201929  0.29477525  1
  H  H67  1  0.49999993  0.79360569  0.45222598  1
  H  H68  1  0.49999984  0.21402982  0.08613523  1
  H  H69  1  0.49999988  0.29508772  0.05955559  1
  H  H70  1  0.50000019  0.35465550  0.03072139  1
  H  H71  1  0.50000032  0.80919083  0.00519485  1
