# generated using pymatgen
data_H7C22
_symmetry_space_group_name_H-M   'P 1'
_cell_length_a   10.00000000
_cell_length_b   25.62946000
_cell_length_c   9.90065094
_cell_angle_alpha   90.00000000
_cell_angle_beta   90.00000000
_cell_angle_gamma   90.00000000
_symmetry_Int_Tables_number   1
_chemical_formula_structural   H7C22
_chemical_formula_sum   'H14 C44'
_cell_volume   2537.48337315
_cell_formula_units_Z   2
loop_
 _symmetry_equiv_pos_site_id
 _symmetry_equiv_pos_as_xyz
  1  'x, y, z'
loop_
 _atom_site_type_symbol
 _atom_site_label
 _atom_site_symmetry_multiplicity
 _atom_site_fract_x
 _atom_site_fract_y
 _atom_site_fract_z
 _atom_site_occupancy
  C  C0  1  0.50000010  0.21994165  0.62491482  1
  C  C1  1  0.50000123  0.23467646  0.86722323  1
  C  C2  1  0.50000045  0.25475341  0.73204147  1
  C  C3  1  0.50000141  0.26772956  0.97761729  1
  C  C4  1  0.49999973  0.31169197  0.71673304  1
  C  C5  1  0.50000079  0.32215404  0.96122713  1
  C  C6  1  0.49999676  0.33619106  0.58967338  1
  C  C7  1  0.49999998  0.34530935  0.83157171  1
  C  C8  1  0.49999456  0.38969023  0.57323958  1
  C  C9  1  0.49999921  0.40216666  0.81288378  1
  C  C10  1  0.49999754  0.42663681  0.68167013  1
  C  C11  1  0.49999940  0.43383016  0.92718995  1
  C  C12  1  0.49999927  0.49154334  0.17368683  1
  C  C13  1  0.50000194  0.49147439  0.41900170  1
  C  C14  1  0.49999837  0.48403510  0.67298508  1
  C  C15  1  0.49999864  0.48784122  0.92309072  1
  C  C16  1  0.49999855  0.51678489  0.04979202  1
  C  C17  1  0.49999954  0.51887627  0.29674968  1
  C  C18  1  0.49999918  0.51429915  0.54643190  1
  C  C19  1  0.49999843  0.51402311  0.79532431  1
  C  C20  1  0.49999860  0.57261251  0.04763386  1
  C  C21  1  0.49999846  0.57408662  0.29708993  1
  C  C22  1  0.49999807  0.57106821  0.54774611  1
  C  C23  1  0.49999852  0.57080064  0.79626077  1
  C  C24  1  0.49999872  0.60085508  0.17157546  1
  C  C25  1  0.49999849  0.59999773  0.42376850  1
  C  C26  1  0.49999826  0.59899776  0.67241272  1
  C  C27  1  0.49999885  0.59927809  0.92107456  1
  C  C28  1  0.49999966  0.65657682  0.17178806  1
  C  C29  1  0.49999947  0.65607872  0.42310326  1
  C  C30  1  0.49999941  0.65524191  0.67242607  1
  C  C31  1  0.49999975  0.65535593  0.92156021  1
  C  C32  1  0.50000044  0.68347567  0.04646788  1
  C  C33  1  0.50000020  0.68371210  0.29760177  1
  C  C34  1  0.50000029  0.68331656  0.54784662  1
  C  C35  1  0.50000039  0.68294879  0.79693833  1
  C  C36  1  0.50000144  0.73993608  0.04671036  1
  C  C37  1  0.50000156  0.74013051  0.29742245  1
  C  C38  1  0.50000238  0.73981628  0.54755204  1
  C  C39  1  0.50000220  0.73949693  0.79706656  1
  C  C40  1  0.50000171  0.76652886  0.17180698  1
  C  C41  1  0.50000288  0.76657337  0.42274369  1
  C  C42  1  0.50000364  0.76629229  0.67260722  1
  C  C43  1  0.50000232  0.76634069  0.92158254  1
  H  H44  1  0.50000054  0.17791436  0.64576270  1
  H  H45  1  0.50000164  0.19222502  0.88110362  1
  H  H46  1  0.50000196  0.80935106  0.17145940  1
  H  H47  1  0.50000393  0.80940774  0.42328394  1
  H  H48  1  0.50000514  0.80910913  0.67338705  1
  H  H49  1  0.50000278  0.80914516  0.92074909  1
  H  H50  1  0.49999920  0.23183629  0.51884767  1
  H  H51  1  0.49999506  0.31254241  0.49747029  1
  H  H52  1  0.49998819  0.40088278  0.46832566  1
  H  H53  1  0.49999953  0.44899303  0.18059955  1
  H  H54  1  0.50000814  0.44990436  0.40566326  1
  H  H55  1  0.50000202  0.25139510  0.07999993  1
  H  H56  1  0.50000099  0.34613569  0.05238848  1
  H  H57  1  0.50000010  0.41483163  0.02512565  1
