# generated using pymatgen
data_H3C8
_symmetry_space_group_name_H-M   'P 1'
_cell_length_a   10.00000000
_cell_length_b   21.36688000
_cell_length_c   9.89945766
_cell_angle_alpha   90.00000000
_cell_angle_beta   90.00000000
_cell_angle_gamma   90.00000000
_symmetry_Int_Tables_number   1
_chemical_formula_structural   H3C8
_chemical_formula_sum   'H12 C32'
_cell_volume   2115.20523830
_cell_formula_units_Z   4
loop_
 _symmetry_equiv_pos_site_id
 _symmetry_equiv_pos_as_xyz
  1  'x, y, z'
loop_
 _atom_site_type_symbol
 _atom_site_label
 _atom_site_symmetry_multiplicity
 _atom_site_fract_x
 _atom_site_fract_y
 _atom_site_fract_z
 _atom_site_occupancy
  C  C0  1  0.49999870  0.28063635  0.05078663  1
  C  C1  1  0.49999950  0.28041650  0.30304048  1
  C  C2  1  0.50000059  0.28117182  0.55327938  1
  C  C3  1  0.49999981  0.28179925  0.80162347  1
  C  C4  1  0.49999922  0.31152967  0.17680071  1
  C  C5  1  0.50000012  0.31252844  0.42831583  1
  C  C6  1  0.50000041  0.31391582  0.67732322  1
  C  C7  1  0.49999927  0.31355119  0.92642602  1
  C  C8  1  0.49999976  0.37906889  0.17674947  1
  C  C9  1  0.49999996  0.38039129  0.42908442  1
  C  C10  1  0.50000017  0.38196276  0.67762816  1
  C  C11  1  0.49999974  0.38150440  0.92617389  1
  C  C12  1  0.50000007  0.41296672  0.05296257  1
  C  C13  1  0.49999992  0.41115500  0.30227822  1
  C  C14  1  0.49999997  0.41514182  0.55308254  1
  C  C15  1  0.50000000  0.41554304  0.80164027  1
  C  C16  1  0.50000069  0.48017690  0.05503342  1
  C  C17  1  0.49999998  0.47762607  0.30206644  1
  C  C18  1  0.49999961  0.48352014  0.55207234  1
  C  C19  1  0.50000014  0.48379322  0.80102022  1
  C  C20  1  0.50000056  0.51042670  0.17933267  1
  C  C21  1  0.49999941  0.51064490  0.42424862  1
  C  C22  1  0.49999974  0.51967639  0.67852455  1
  C  C23  1  0.50000079  0.51474576  0.92908846  1
  C  C24  1  0.49999981  0.58889781  0.68791711  1
  C  C25  1  0.50000077  0.57991680  0.93382953  1
  C  C26  1  0.49999985  0.63260047  0.58033051  1
  C  C27  1  0.50000026  0.61773778  0.82096067  1
  C  C28  1  0.49999982  0.69805723  0.59799526  1
  C  C29  1  0.50000030  0.68649260  0.84146496  1
  C  C30  1  0.50000012  0.72518667  0.72362477  1
  C  C31  1  0.50000054  0.71564359  0.96592893  1
  H  H32  1  0.49999817  0.22927129  0.04855816  1
  H  H33  1  0.49999929  0.22905946  0.30417548  1
  H  H34  1  0.50000088  0.22982389  0.55486264  1
  H  H35  1  0.49999979  0.23041838  0.80121542  1
  H  H36  1  0.50000020  0.77611475  0.73597210  1
  H  H37  1  0.50000065  0.76691739  0.97000259  1
  H  H38  1  0.50000084  0.56142945  0.18653715  1
  H  H39  1  0.49999881  0.56048517  0.41016349  1
  H  H40  1  0.50000028  0.61904149  0.47549132  1
  H  H41  1  0.49999957  0.72761816  0.50742239  1
  H  H42  1  0.50000134  0.60265495  0.03196969  1
  H  H43  1  0.50000057  0.69126599  0.06299583  1
