# generated using pymatgen
data_HC4
_symmetry_space_group_name_H-M   'P 1'
_cell_length_a   10.00000000
_cell_length_b   29.89204000
_cell_length_c   9.90196260
_cell_angle_alpha   90.00000000
_cell_angle_beta   90.00000000
_cell_angle_gamma   90.00000000
_symmetry_Int_Tables_number   1
_chemical_formula_structural   HC4
_chemical_formula_sum   'H16 C64'
_cell_volume   2959.89862186
_cell_formula_units_Z   16
loop_
 _symmetry_equiv_pos_site_id
 _symmetry_equiv_pos_as_xyz
  1  'x, y, z'
loop_
 _atom_site_type_symbol
 _atom_site_label
 _atom_site_symmetry_multiplicity
 _atom_site_fract_x
 _atom_site_fract_y
 _atom_site_fract_z
 _atom_site_occupancy
  C  C0  1  0.50000004  0.83460521  0.53543687  1
  C  C1  1  0.49999999  0.84194397  0.77808090  1
  C  C2  1  0.50000004  0.16539479  0.53543685  1
  C  C3  1  0.49999999  0.15805601  0.77808089  1
  C  C4  1  0.50000001  0.18580421  0.66062009  1
  C  C5  1  0.49999997  0.17746965  0.90387770  1
  C  C6  1  0.50000000  0.23492624  0.68125236  1
  C  C7  1  0.49999995  0.22417145  0.92191236  1
  C  C8  1  0.50000001  0.26195615  0.56783738  1
  C  C9  1  0.49999998  0.25556978  0.81394049  1
  C  C10  1  0.50000003  0.31139269  0.07641157  1
  C  C11  1  0.50000000  0.31151905  0.32154791  1
  C  C12  1  0.50000000  0.30844419  0.57213844  1
  C  C13  1  0.49999999  0.30499860  0.82258134  1
  C  C14  1  0.50000001  0.33498407  0.19864823  1
  C  C15  1  0.50000000  0.33320722  0.44585025  1
  C  C16  1  0.50000000  0.33073984  0.70006310  1
  C  C17  1  0.50000000  0.33098903  0.94876433  1
  C  C18  1  0.50000000  0.38229763  0.19818882  1
  C  C19  1  0.50000000  0.38106489  0.44782007  1
  C  C20  1  0.50000000  0.37939593  0.69919320  1
  C  C21  1  0.49999999  0.37965502  0.94740081  1
  C  C22  1  0.50000000  0.40452290  0.07147123  1
  C  C23  1  0.50000000  0.40530047  0.32371053  1
  C  C24  1  0.50000000  0.40390682  0.57448569  1
  C  C25  1  0.50000000  0.40369385  0.82288336  1
  C  C26  1  0.50000000  0.45242825  0.07194457  1
  C  C27  1  0.50000000  0.45290624  0.32352779  1
  C  C28  1  0.50000000  0.45188633  0.57412184  1
  C  C29  1  0.50000000  0.45183030  0.82282127  1
  C  C30  1  0.50000000  0.47614783  0.19750601  1
  C  C31  1  0.50000001  0.47608405  0.44912902  1
  C  C32  1  0.50000000  0.47593083  0.69855675  1
  C  C33  1  0.50000000  0.47604161  0.94724353  1
  C  C34  1  0.50000000  0.52385207  0.19750631  1
  C  C35  1  0.50000001  0.52391596  0.44912838  1
  C  C36  1  0.50000000  0.52406922  0.69855655  1
  C  C37  1  0.50000000  0.52395840  0.94724404  1
  C  C38  1  0.50000000  0.54757177  0.07194383  1
  C  C39  1  0.50000000  0.54709377  0.32352843  1
  C  C40  1  0.50000000  0.54811359  0.57412225  1
  C  C41  1  0.50000000  0.54816962  0.82282087  1
  C  C42  1  0.50000000  0.59547704  0.07147157  1
  C  C43  1  0.50000000  0.59469945  0.32371026  1
  C  C44  1  0.50000000  0.59609329  0.57448549  1
  C  C45  1  0.50000000  0.59630628  0.82288348  1
  C  C46  1  0.50000000  0.61770249  0.19818864  1
  C  C47  1  0.50000000  0.61893512  0.44782035  1
  C  C48  1  0.50000000  0.62060403  0.69919319  1
  C  C49  1  0.49999999  0.62034495  0.94740048  1
  C  C50  1  0.50000001  0.66501582  0.19864835  1
  C  C51  1  0.50000000  0.66679279  0.44585010  1
  C  C52  1  0.50000000  0.66926021  0.70006304  1
  C  C53  1  0.50000000  0.66901096  0.94876440  1
  C  C54  1  0.50000003  0.68860733  0.07641135  1
  C  C55  1  0.50000000  0.68848097  0.32154775  1
  C  C56  1  0.50000000  0.69155580  0.57213848  1
  C  C57  1  0.49999999  0.69500140  0.82258133  1
  C  C58  1  0.50000001  0.73804386  0.56783735  1
  C  C59  1  0.49999998  0.74443025  0.81394047  1
  C  C60  1  0.50000000  0.76507379  0.68125236  1
  C  C61  1  0.49999995  0.77582857  0.92191233  1
  C  C62  1  0.50000001  0.81419577  0.66062003  1
  C  C63  1  0.49999997  0.82253035  0.90387761  1
  H  H64  1  0.50000004  0.87122055  0.52980299  1
  H  H65  1  0.49999999  0.87839787  0.76628246  1
  H  H66  1  0.50000004  0.12877945  0.52980298  1
  H  H67  1  0.49999999  0.12160209  0.76628240  1
  H  H68  1  0.50000006  0.81657178  0.43941532  1
  H  H69  1  0.50000006  0.18342823  0.43941533  1
  H  H70  1  0.50000002  0.24552011  0.47005247  1
  H  H71  1  0.50000007  0.27574020  0.08973156  1
  H  H72  1  0.50000001  0.27504978  0.31428991  1
  H  H73  1  0.50000007  0.72425983  0.08973144  1
  H  H74  1  0.50000001  0.72495022  0.31428982  1
  H  H75  1  0.50000002  0.75447990  0.47005242  1
  H  H76  1  0.49999995  0.15628987  -0.00563187  1
  H  H77  1  0.49999988  0.23356440  0.02708998  1
  H  H78  1  0.49999988  0.76643558  0.02708999  1
  H  H79  1  0.49999995  0.84371014  -0.00563186  1
