# generated using pymatgen
data_HC2
_symmetry_space_group_name_H-M   'P 1'
_cell_length_a   10.00000000
_cell_length_b   29.89204000
_cell_length_c   9.99100992
_cell_angle_alpha   90.00000000
_cell_angle_beta   90.00000000
_cell_angle_gamma   90.00000000
_symmetry_Int_Tables_number   1
_chemical_formula_structural   HC2
_chemical_formula_sum   'H24 C48'
_cell_volume   2986.51668286
_cell_formula_units_Z   24
loop_
 _symmetry_equiv_pos_site_id
 _symmetry_equiv_pos_as_xyz
  1  'x, y, z'
loop_
 _atom_site_type_symbol
 _atom_site_label
 _atom_site_symmetry_multiplicity
 _atom_site_fract_x
 _atom_site_fract_y
 _atom_site_fract_z
 _atom_site_occupancy
  C  C0  1  0.49999706  0.83364461  0.51208617  1
  C  C1  1  0.50000111  0.84131602  0.75433758  1
  C  C2  1  0.49999706  0.16636012  0.51209643  1
  C  C3  1  0.50000111  0.15868807  0.75434180  1
  C  C4  1  0.49999915  0.18635258  0.63723989  1
  C  C5  1  0.50000318  0.17700214  0.88173797  1
  C  C6  1  0.49999933  0.23495585  0.65765485  1
  C  C7  1  0.50000298  0.22348780  0.90070009  1
  C  C8  1  0.49999817  0.26507115  0.54867830  1
  C  C9  1  0.50000090  0.25317256  0.79007508  1
  C  C10  1  0.49999822  0.31089195  0.56586752  1
  C  C11  1  0.50000049  0.30144887  0.80692567  1
  C  C12  1  0.49999946  0.33075347  0.69532053  1
  C  C13  1  0.50000096  0.32216819  0.93419024  1
  C  C14  1  0.49999981  0.37923745  0.71530957  1
  C  C15  1  0.50000069  0.36780161  0.95201807  1
  C  C16  1  0.49999992  0.40655836  0.60224893  1
  C  C17  1  0.50000020  0.40001926  0.84529101  1
  C  C18  1  0.49999960  0.45466974  0.10605282  1
  C  C19  1  0.49999977  0.45345242  0.35444725  1
  C  C20  1  0.50000007  0.45274209  0.60588964  1
  C  C21  1  0.50000020  0.44935523  0.85431847  1
  C  C22  1  0.49999977  0.47631129  0.23090732  1
  C  C23  1  0.49999995  0.47607557  0.47665860  1
  C  C24  1  0.50000020  0.47536164  0.73358045  1
  C  C25  1  0.50000009  0.47535089  0.98029959  1
  C  C26  1  0.49999977  0.52368813  0.23091492  1
  C  C27  1  0.49999995  0.52391550  0.47667122  1
  C  C28  1  0.50000020  0.52461535  0.73356957  1
  C  C29  1  0.50000009  0.52463148  0.98029942  1
  C  C30  1  0.49999959  0.54532831  0.10604230  1
  C  C31  1  0.49999977  0.54654892  0.35443213  1
  C  C32  1  0.50000007  0.54725776  0.60588590  1
  C  C33  1  0.50000020  0.55062088  0.85431546  1
  C  C34  1  0.49999992  0.59343054  0.60223836  1
  C  C35  1  0.50000020  0.59993485  0.84525338  1
  C  C36  1  0.49999981  0.62075313  0.71530691  1
  C  C37  1  0.50000069  0.63221966  0.95196498  1
  C  C38  1  0.49999946  0.66924062  0.69536103  1
  C  C39  1  0.50000096  0.67788070  0.93429155  1
  C  C40  1  0.49999822  0.68910437  0.56589948  1
  C  C41  1  0.50000049  0.69856477  0.80695059  1
  C  C42  1  0.49999817  0.73492877  0.54868101  1
  C  C43  1  0.50000090  0.74683492  0.79006199  1
  C  C44  1  0.49999933  0.76504804  0.65764664  1
  C  C45  1  0.50000297  0.77651554  0.90069299  1
  C  C46  1  0.49999915  0.81365036  0.63723787  1
  C  C47  1  0.50000318  0.82300024  0.88174304  1
  H  H48  1  0.49999710  0.87020378  0.50401944  1
  H  H49  1  0.50000092  0.87771786  0.74067044  1
  H  H50  1  0.49999710  0.12979929  0.50402410  1
  H  H51  1  0.50000092  0.12228399  0.74066693  1
  H  H52  1  0.49999528  0.81474775  0.41840051  1
  H  H53  1  0.49999528  0.18525467  0.41840681  1
  H  H54  1  0.49999759  0.25186530  0.44653124  1
  H  H55  1  0.49999715  0.33156916  0.47573022  1
  H  H56  1  0.49999992  0.39041852  0.50503243  1
  H  H57  1  0.49999872  0.41886482  0.11422525  1
  H  H58  1  0.49999973  0.41689968  0.34978501  1
  H  H59  1  0.49999872  0.58113617  0.11420905  1
  H  H60  1  0.49999973  0.58309765  0.34977681  1
  H  H61  1  0.49999992  0.60958198  0.50500652  1
  H  H62  1  0.49999715  0.66843251  0.47575135  1
  H  H63  1  0.49999759  0.74813156  0.44653197  1
  H  H64  1  0.50000526  0.15487578  -0.03073787  1
  H  H65  1  0.50000456  0.23647481  0.00301878  1
  H  H66  1  0.50000128  0.30161324  0.02479627  1
  H  H67  1  0.50000122  0.37666956  0.05664995  1
  H  H68  1  0.50000122  0.62333467  0.05658155  1
  H  H69  1  0.50000128  0.69841595  0.02491783  1
  H  H70  1  0.50000456  0.76352547  0.00300803  1
  H  H71  1  0.50000526  0.84512406  -0.03073719  1
