# generated using pymatgen
data_H3C10
_symmetry_space_group_name_H-M   'P 1'
_cell_length_a   10.00000000
_cell_length_b   29.89204000
_cell_length_c   9.91176843
_cell_angle_alpha   90.00000000
_cell_angle_beta   90.00000000
_cell_angle_gamma   90.00000000
_symmetry_Int_Tables_number   1
_chemical_formula_structural   H3C10
_chemical_formula_sum   'H18 C60'
_cell_volume   2962.82978515
_cell_formula_units_Z   6
loop_
 _symmetry_equiv_pos_site_id
 _symmetry_equiv_pos_as_xyz
  1  'x, y, z'
loop_
 _atom_site_type_symbol
 _atom_site_label
 _atom_site_symmetry_multiplicity
 _atom_site_fract_x
 _atom_site_fract_y
 _atom_site_fract_z
 _atom_site_occupancy
  C  C0  1  0.50000010  0.84745919  0.63015873  1
  C  C1  1  0.50000022  0.83653447  0.87394216  1
  C  C2  1  0.50000004  0.16643988  0.51498916  1
  C  C3  1  0.50000007  0.15779224  0.75701788  1
  C  C4  1  0.50000006  0.18614122  0.64111934  1
  C  C5  1  0.49999988  0.17669286  0.88344597  1
  C  C6  1  0.50000003  0.23505259  0.66424932  1
  C  C7  1  0.49999971  0.22335822  0.90382399  1
  C  C8  1  0.50000008  0.26221079  0.55176431  1
  C  C9  1  0.49999992  0.25526479  0.79732283  1
  C  C10  1  0.50000022  0.31087940  0.06070583  1
  C  C11  1  0.50000009  0.31125015  0.30626275  1
  C  C12  1  0.50000003  0.30855162  0.55667227  1
  C  C13  1  0.49999998  0.30471447  0.80681543  1
  C  C14  1  0.50000009  0.33447493  0.18299465  1
  C  C15  1  0.50000003  0.33300298  0.43040499  1
  C  C16  1  0.49999999  0.33062048  0.68474932  1
  C  C17  1  0.50000004  0.33058686  0.93305272  1
  C  C18  1  0.49999996  0.38183000  0.18277406  1
  C  C19  1  0.49999997  0.38074401  0.43288608  1
  C  C20  1  0.49999997  0.37920907  0.68405783  1
  C  C21  1  0.49999996  0.37925691  0.93189560  1
  C  C22  1  0.49999995  0.40401181  0.05597957  1
  C  C23  1  0.49999993  0.40475762  0.30856008  1
  C  C24  1  0.49999995  0.40355108  0.55932267  1
  C  C25  1  0.49999994  0.40344356  0.80765433  1
  C  C26  1  0.49999991  0.45184851  0.05617044  1
  C  C27  1  0.49999988  0.45225389  0.30864282  1
  C  C28  1  0.49999990  0.45149341  0.55924789  1
  C  C29  1  0.49999991  0.45163117  0.80748122  1
  C  C30  1  0.49999986  0.47505615  0.18181651  1
  C  C31  1  0.49999987  0.47546540  0.43447898  1
  C  C32  1  0.49999988  0.47572085  0.68339105  1
  C  C33  1  0.49999991  0.47586753  0.93150270  1
  C  C34  1  0.49999987  0.52256271  0.18182364  1
  C  C35  1  0.49999987  0.52328416  0.43469123  1
  C  C36  1  0.49999985  0.52389912  0.68323930  1
  C  C37  1  0.49999993  0.52383038  0.93140418  1
  C  C38  1  0.49999995  0.54675604  0.05782692  1
  C  C39  1  0.49999992  0.54538419  0.30767952  1
  C  C40  1  0.49999986  0.54800858  0.55870680  1
  C  C41  1  0.49999995  0.54818344  0.80672569  1
  C  C42  1  0.50000009  0.59456222  0.06025385  1
  C  C43  1  0.50000041  0.59263343  0.30726159  1
  C  C44  1  0.50000023  0.59658999  0.55730960  1
  C  C45  1  0.49999998  0.59676759  0.80604294  1
  C  C46  1  0.50000040  0.61612765  0.18427559  1
  C  C47  1  0.50000104  0.61609036  0.42954191  1
  C  C48  1  0.49999997  0.62246810  0.68387983  1
  C  C49  1  0.50000004  0.61930395  0.93362185  1
  C  C50  1  0.49999971  0.67156235  0.69271859  1
  C  C51  1  0.50000017  0.66558572  0.93785530  1
  C  C52  1  0.49999897  0.70299933  0.58377850  1
  C  C53  1  0.50000007  0.69270096  0.82362739  1
  C  C54  1  0.49999955  0.74881267  0.59998263  1
  C  C55  1  0.50000011  0.74144350  0.84209203  1
  C  C56  1  0.50000016  0.76988833  0.72667511  1
  C  C57  1  0.50000001  0.76181448  0.97112905  1
  C  C58  1  0.50000022  0.81868111  0.73975996  1
  C  C59  1  0.50000009  0.80859326  0.98530481  1
  H  H60  1  0.50000007  0.88369057  0.64684925  1
  H  H61  1  0.50000025  0.87299977  0.88625754  1
  H  H62  1  0.50000005  0.12988245  0.50807099  1
  H  H63  1  0.50000015  0.12141937  0.74299083  1
  H  H64  1  0.50000002  0.83604341  0.52526741  1
  H  H65  1  0.49999998  0.18457446  0.41918643  1
  H  H66  1  0.50000014  0.24597156  0.45392268  1
  H  H67  1  0.50000058  0.27513154  0.07310772  1
  H  H68  1  0.50000012  0.27479999  0.29932954  1
  H  H69  1  0.50000054  0.65259169  0.19170042  1
  H  H70  1  0.50000266  0.65169467  0.41552555  1
  H  H71  1  0.49999731  0.69340562  0.47901978  1
  H  H72  1  0.49999923  0.76915501  0.50812869  1
  H  H73  1  0.49999979  0.15494708  -0.02746136  1
  H  H74  1  0.49999924  0.23215052  0.00946484  1
  H  H75  1  0.50000031  0.68177079  0.03584421  1
  H  H76  1  0.49999982  0.74178790  0.06341320  1
  H  H77  1  0.49999999  0.82318478  0.08682094  1
