# generated using pymatgen
data_HC2
_symmetry_space_group_name_H-M   'P 1'
_cell_length_a   10.00000000
_cell_length_b   21.36688000
_cell_length_c   9.98008840
_cell_angle_alpha   90.00000000
_cell_angle_beta   90.00000000
_cell_angle_gamma   90.00000000
_symmetry_Int_Tables_number   1
_chemical_formula_structural   HC2
_chemical_formula_sum   'H16 C32'
_cell_volume   2132.43351165
_cell_formula_units_Z   16
loop_
 _symmetry_equiv_pos_site_id
 _symmetry_equiv_pos_as_xyz
  1  'x, y, z'
loop_
 _atom_site_type_symbol
 _atom_site_label
 _atom_site_symmetry_multiplicity
 _atom_site_fract_x
 _atom_site_fract_y
 _atom_site_fract_z
 _atom_site_occupancy
  C  C0  1  0.49999888  0.78566849  0.62060298  1
  C  C1  1  0.50000052  0.76832359  0.86142342  1
  C  C2  1  0.50000122  0.21305755  0.57376906  1
  C  C3  1  0.49999419  0.23157526  0.80343904  1
  C  C4  1  0.49999840  0.25927608  0.67151189  1
  C  C5  1  0.49999542  0.26574342  0.91770682  1
  C  C6  1  0.50000076  0.33210169  0.16575084  1
  C  C7  1  0.49999953  0.33369680  0.41503576  1
  C  C8  1  0.49999992  0.32880041  0.66492836  1
  C  C9  1  0.49999916  0.33214526  0.91526880  1
  C  C10  1  0.50000047  0.36422298  0.04274626  1
  C  C11  1  0.50000044  0.36373884  0.28957530  1
  C  C12  1  0.50000024  0.36405070  0.54010266  1
  C  C13  1  0.50000018  0.36383512  0.78759848  1
  C  C14  1  0.50000059  0.43151869  0.04317925  1
  C  C15  1  0.49999957  0.43032466  0.28926820  1
  C  C16  1  0.49999990  0.43285689  0.53969055  1
  C  C17  1  0.50000103  0.43269585  0.78703157  1
  C  C18  1  0.49999977  0.46264329  0.16604817  1
  C  C19  1  0.49999766  0.46127616  0.41326130  1
  C  C20  1  0.50000109  0.46894563  0.66564978  1
  C  C21  1  0.50000095  0.46438195  0.91447882  1
  C  C22  1  0.50000208  0.53812902  0.67440636  1
  C  C23  1  0.50000070  0.52920775  0.91762017  1
  C  C24  1  0.50000381  0.58283933  0.56751919  1
  C  C25  1  0.50000128  0.56737828  0.80477771  1
  C  C26  1  0.50000199  0.64703326  0.58550005  1
  C  C27  1  0.50000123  0.63550821  0.82504347  1
  C  C28  1  0.50000045  0.67605361  0.71160538  1
  C  C29  1  0.50000209  0.66320021  0.95377060  1
  C  C30  1  0.49999981  0.74430936  0.72732998  1
  C  C31  1  0.50000166  0.72849176  0.97051306  1
  H  H32  1  0.49999846  0.83617840  0.63959977  1
  H  H33  1  0.50000024  0.81920509  0.87535490  1
  H  H34  1  0.49999765  0.16455616  0.60966598  1
  H  H35  1  0.49999155  0.18034349  0.80985790  1
  H  H36  1  0.49999838  0.77064644  0.51591508  1
  H  H37  1  0.50000801  0.21692376  0.46547153  1
  H  H38  1  0.50000124  0.28098488  0.16919029  1
  H  H39  1  0.49999717  0.28330134  0.41075469  1
  H  H40  1  0.49999947  0.51377211  0.17196417  1
  H  H41  1  0.49999295  0.51134601  0.40415791  1
  H  H42  1  0.50000808  0.57053341  0.46267370  1
  H  H43  1  0.50000264  0.67589326  0.49489051  1
  H  H44  1  0.49999333  0.24083232  0.01301634  1
  H  H45  1  0.50000012  0.55205273  0.01463628  1
  H  H46  1  0.50000338  0.63459441  0.04441024  1
  H  H47  1  0.50000236  0.74782716  0.07228744  1
