# generated using pymatgen
data_HC4
_symmetry_space_group_name_H-M   'P 1'
_cell_length_a   10.00000000
_cell_length_b   25.62946000
_cell_length_c   9.89656445
_cell_angle_alpha   90.00000000
_cell_angle_beta   90.00000000
_cell_angle_gamma   90.00000000
_symmetry_Int_Tables_number   1
_chemical_formula_structural   HC4
_chemical_formula_sum   'H12 C48'
_cell_volume   2536.43602654
_cell_formula_units_Z   12
loop_
 _symmetry_equiv_pos_site_id
 _symmetry_equiv_pos_as_xyz
  1  'x, y, z'
loop_
 _atom_site_type_symbol
 _atom_site_label
 _atom_site_symmetry_multiplicity
 _atom_site_fract_x
 _atom_site_fract_y
 _atom_site_fract_z
 _atom_site_occupancy
  C  C0  1  0.50000017  0.21980937  0.59200691  1
  C  C1  1  0.50000099  0.23490837  0.82482058  1
  C  C2  1  0.50000022  0.25800886  0.69168819  1
  C  C3  1  0.50000057  0.26300391  0.94106694  1
  C  C4  1  0.49999953  0.32135242  0.18888073  1
  C  C5  1  0.49999983  0.32138855  0.43526109  1
  C  C6  1  0.49999967  0.31580209  0.68641780  1
  C  C7  1  0.49999968  0.31839018  0.93888211  1
  C  C8  1  0.49999957  0.34687917  0.06396090  1
  C  C9  1  0.49999977  0.34852564  0.31218300  1
  C  C10  1  0.49999975  0.34547133  0.56184568  1
  C  C11  1  0.49999931  0.34463086  0.81105118  1
  C  C12  1  0.49999964  0.40290038  0.06235669  1
  C  C13  1  0.49999993  0.40404656  0.31237317  1
  C  C14  1  0.49999973  0.40198568  0.56301877  1
  C  C15  1  0.49999918  0.40137118  0.81155426  1
  C  C16  1  0.49999989  0.43089926  0.18682327  1
  C  C17  1  0.49999995  0.43045695  0.43854659  1
  C  C18  1  0.49999946  0.42975755  0.68777828  1
  C  C19  1  0.49999950  0.42977822  0.93634433  1
  C  C20  1  0.49999996  0.48647044  0.18694825  1
  C  C21  1  0.50000003  0.48630294  0.43856744  1
  C  C22  1  0.49999989  0.48596069  0.68792599  1
  C  C23  1  0.49999985  0.48584433  0.93646411  1
  C  C24  1  0.49999996  0.51369633  0.06142966  1
  C  C25  1  0.50000003  0.51352871  0.31304984  1
  C  C26  1  0.50000014  0.51415619  0.56353261  1
  C  C27  1  0.50000011  0.51404030  0.81207247  1
  C  C28  1  0.50000004  0.56954220  0.06145215  1
  C  C29  1  0.50000010  0.56909990  0.31317613  1
  C  C30  1  0.50000049  0.57022295  0.56365147  1
  C  C31  1  0.50000056  0.57024379  0.81222177  1
  C  C32  1  0.50000006  0.59595086  0.18762535  1
  C  C33  1  0.50000035  0.59710118  0.43763982  1
  C  C34  1  0.50000082  0.59862959  0.68844318  1
  C  C35  1  0.50000028  0.59801518  0.93698300  1
  C  C36  1  0.50000023  0.65147095  0.18781483  1
  C  C37  1  0.50000042  0.65312346  0.43603525  1
  C  C38  1  0.50000068  0.65537024  0.68894641  1
  C  C39  1  0.50000026  0.65452930  0.93815544  1
  C  C40  1  0.50000018  0.67861095  0.06474273  1
  C  C41  1  0.50000048  0.67864874  0.31111145  1
  C  C42  1  0.50000031  0.68161261  0.56111570  1
  C  C43  1  0.50000034  0.68419667  0.81358160  1
  C  C44  1  0.49999941  0.73700089  0.55892813  1
  C  C45  1  0.49999978  0.74198746  0.80831579  1
  C  C46  1  0.49999899  0.76509135  0.67518418  1
  C  C47  1  0.49999982  0.78018759  0.90799801  1
  H  H48  1  0.50000062  0.17920746  0.62709082  1
  H  H49  1  0.50000185  0.19220752  0.83016832  1
  H  H50  1  0.49999812  0.80779331  0.66990169  1
  H  H51  1  0.49999939  0.82078613  0.87289484  1
  H  H52  1  0.49999965  0.22346709  0.48272679  1
  H  H53  1  0.49999927  0.27879116  0.19507890  1
  H  H54  1  0.49999986  0.27945052  0.42719365  1
  H  H55  1  0.50000015  0.72054779  0.07283652  1
  H  H56  1  0.50000079  0.72121014  0.30488208  1
  H  H57  1  0.49999898  0.75813998  0.46321395  1
  H  H58  1  0.50000101  0.24185639  0.03676003  1
  H  H59  1  0.50000038  0.77654015  0.01727916  1
