# generated using pymatgen
data_H5C18
_symmetry_space_group_name_H-M   'P 1'
_cell_length_a   10.00000000
_cell_length_b   21.36688000
_cell_length_c   9.88258210
_cell_angle_alpha   90.00000000
_cell_angle_beta   90.00000000
_cell_angle_gamma   90.00000000
_symmetry_Int_Tables_number   1
_chemical_formula_structural   H5C18
_chemical_formula_sum   'H10 C36'
_cell_volume   2111.59945889
_cell_formula_units_Z   2
loop_
 _symmetry_equiv_pos_site_id
 _symmetry_equiv_pos_as_xyz
  1  'x, y, z'
loop_
 _atom_site_type_symbol
 _atom_site_label
 _atom_site_symmetry_multiplicity
 _atom_site_fract_x
 _atom_site_fract_y
 _atom_site_fract_z
 _atom_site_occupancy
  C  C0  1  0.49999981  0.28175785  0.06488603  1
  C  C1  1  0.49999972  0.28177286  0.31545046  1
  C  C2  1  0.49999968  0.28185573  0.56557646  1
  C  C3  1  0.49999973  0.28197206  0.81491693  1
  C  C4  1  0.49999973  0.31355451  0.19014231  1
  C  C5  1  0.49999942  0.31366127  0.44062337  1
  C  C6  1  0.49999962  0.31401567  0.69024230  1
  C  C7  1  0.49999950  0.31382514  0.93990574  1
  C  C8  1  0.49999974  0.38128686  0.19008123  1
  C  C9  1  0.49999950  0.38140470  0.44113952  1
  C  C10  1  0.49999957  0.38185988  0.69053249  1
  C  C11  1  0.49999946  0.38156091  0.93976312  1
  C  C12  1  0.49999982  0.41434199  0.06472310  1
  C  C13  1  0.49999987  0.41393820  0.31592801  1
  C  C14  1  0.49999976  0.41505313  0.56595880  1
  C  C15  1  0.49999967  0.41510300  0.81517141  1
  C  C16  1  0.50000029  0.48148430  0.06482218  1
  C  C17  1  0.50000033  0.48089316  0.31637067  1
  C  C18  1  0.50000032  0.48242690  0.56657812  1
  C  C19  1  0.50000028  0.48266453  0.81546007  1
  C  C20  1  0.50000040  0.51313119  0.19096057  1
  C  C21  1  0.50000064  0.51456720  0.44071004  1
  C  C22  1  0.50000054  0.51649066  0.69140593  1
  C  C23  1  0.50000054  0.51567837  0.94044749  1
  C  C24  1  0.50000017  0.57981850  0.19129391  1
  C  C25  1  0.50000063  0.58181425  0.43940754  1
  C  C26  1  0.50000069  0.58458287  0.69227182  1
  C  C27  1  0.50000054  0.58352751  0.94160810  1
  C  C28  1  0.50000001  0.61239633  0.06823079  1
  C  C29  1  0.50000022  0.61240696  0.31454820  1
  C  C30  1  0.50000050  0.61601230  0.56450987  1
  C  C31  1  0.50000049  0.61908547  0.81706182  1
  C  C32  1  0.49999991  0.68250094  0.56246287  1
  C  C33  1  0.50000005  0.68844807  0.81211344  1
  C  C34  1  0.49999960  0.71620055  0.67879975  1
  C  C35  1  0.50000002  0.73427184  0.91183759  1
  H  H36  1  0.50000022  0.23035972  0.06441592  1
  H  H37  1  0.50000017  0.23040641  0.31563282  1
  H  H38  1  0.50000004  0.23050511  0.56591628  1
  H  H39  1  0.49999996  0.23061973  0.81467502  1
  H  H40  1  0.49999942  0.76741509  0.67401624  1
  H  H41  1  0.49999971  0.78295621  0.87654100  1
  H  H42  1  0.49999954  0.66270472  0.07583208  1
  H  H43  1  0.49999995  0.66342369  0.30906936  1
  H  H44  1  0.49999981  0.70785592  0.46668127  1
  H  H45  1  0.50000042  0.72990354  0.02127799  1
