# generated using pymatgen
data_H5C34
_symmetry_space_group_name_H-M   'P 1'
_cell_length_a   10.00000000
_cell_length_b   29.89204000
_cell_length_c   9.88289039
_cell_angle_alpha   90.00000000
_cell_angle_beta   90.00000000
_cell_angle_gamma   90.00000000
_symmetry_Int_Tables_number   1
_chemical_formula_structural   H5C34
_chemical_formula_sum   'H10 C68'
_cell_volume   2954.19754917
_cell_formula_units_Z   2
loop_
 _symmetry_equiv_pos_site_id
 _symmetry_equiv_pos_as_xyz
  1  'x, y, z'
loop_
 _atom_site_type_symbol
 _atom_site_label
 _atom_site_symmetry_multiplicity
 _atom_site_fract_x
 _atom_site_fract_y
 _atom_site_fract_z
 _atom_site_occupancy
  C  C0  1  0.50000000  0.20150456  0.06264764  1
  C  C1  1  0.50000000  0.20151611  0.31263907  1
  C  C2  1  0.50000000  0.20151365  0.56263415  1
  C  C3  1  0.50000000  0.20150968  0.81264487  1
  C  C4  1  0.50000000  0.22433471  0.18766120  1
  C  C5  1  0.50000000  0.22433370  0.43765811  1
  C  C6  1  0.50000000  0.22432954  0.68767923  1
  C  C7  1  0.50000000  0.22433122  0.93768498  1
  C  C8  1  0.50000000  0.27271785  0.18778944  1
  C  C9  1  0.50000000  0.27271016  0.43779080  1
  C  C10  1  0.50000000  0.27270445  0.68785591  1
  C  C11  1  0.50000000  0.27271307  0.93784670  1
  C  C12  1  0.50000000  0.29642120  0.06287891  1
  C  C13  1  0.50000000  0.29641336  0.31285446  1
  C  C14  1  0.50000000  0.29638738  0.56288914  1
  C  C15  1  0.50000000  0.29640310  0.81290869  1
  C  C16  1  0.50000000  0.34433531  0.06315510  1
  C  C17  1  0.50000000  0.34432454  0.31312897  1
  C  C18  1  0.50000000  0.34429009  0.56314589  1
  C  C19  1  0.50000000  0.34431330  0.81316142  1
  C  C20  1  0.50000000  0.36810338  0.18823906  1
  C  C21  1  0.50000000  0.36806321  0.43825730  1
  C  C22  1  0.50000000  0.36805813  0.68824266  1
  C  C23  1  0.50000000  0.36808725  0.93824773  1
  C  C24  1  0.50000000  0.41590651  0.18863570  1
  C  C25  1  0.50000000  0.41588049  0.43867974  1
  C  C26  1  0.50000000  0.41586491  0.68864129  1
  C  C27  1  0.50000000  0.41587808  0.93860966  1
  C  C28  1  0.50000000  0.43965403  0.06369366  1
  C  C29  1  0.50000000  0.43966829  0.31382543  1
  C  C30  1  0.50000000  0.43965936  0.56383941  1
  C  C31  1  0.50000000  0.43964413  0.81372120  1
  C  C32  1  0.50000000  0.48741881  0.06405411  1
  C  C33  1  0.50000000  0.48743831  0.31435918  1
  C  C34  1  0.50000000  0.48743175  0.56441370  1
  C  C35  1  0.50000000  0.48743482  0.81410795  1
  C  C36  1  0.50000000  0.51112635  0.18925256  1
  C  C37  1  0.50000000  0.51120128  0.43965734  1
  C  C38  1  0.50000000  0.51131264  0.68946550  1
  C  C39  1  0.50000000  0.51121516  0.93915632  1
  C  C40  1  0.50000000  0.55885187  0.18961163  1
  C  C41  1  0.50000000  0.55896527  0.44054513  1
  C  C42  1  0.50000000  0.55918087  0.69012696  1
  C  C43  1  0.50000000  0.55900095  0.93944656  1
  C  C44  1  0.50000000  0.58258822  0.06441267  1
  C  C45  1  0.50000000  0.58233733  0.31546491  1
  C  C46  1  0.50000000  0.58310639  0.56558841  1
  C  C47  1  0.50000000  0.58307497  0.81485533  1
  C  C48  1  0.50000000  0.63040693  0.06455405  1
  C  C49  1  0.50000000  0.62999144  0.31606941  1
  C  C50  1  0.50000000  0.63105683  0.56632630  1
  C  C51  1  0.50000001  0.63113660  0.81522140  1
  C  C52  1  0.50000000  0.65309609  0.19077791  1
  C  C53  1  0.50000000  0.65407863  0.44047406  1
  C  C54  1  0.50000000  0.65542693  0.69133246  1
  C  C55  1  0.50000000  0.65484900  0.94016713  1
  C  C56  1  0.50000000  0.70067941  0.19132238  1
  C  C57  1  0.50000000  0.70204680  0.43936748  1
  C  C58  1  0.50000000  0.70395490  0.69234445  1
  C  C59  1  0.50000000  0.70320448  0.94166125  1
  C  C60  1  0.49999998  0.72396201  0.06827075  1
  C  C61  1  0.50000001  0.72400682  0.31465416  1
  C  C62  1  0.49999999  0.72646746  0.56456452  1
  C  C63  1  0.50000000  0.72864328  0.81713174  1
  C  C64  1  0.49999997  0.77390312  0.56268737  1
  C  C65  1  0.50000000  0.77813170  0.81238358  1
  C  C66  1  0.49999999  0.79792853  0.67924444  1
  C  C67  1  0.50000003  0.81093374  0.91216297  1
  H  H68  1  0.50000000  0.16480182  0.06261656  1
  H  H69  1  0.50000000  0.16481454  0.31257438  1
  H  H70  1  0.50000000  0.16480944  0.56253876  1
  H  H71  1  0.50000000  0.16480680  0.81256320  1
  H  H72  1  0.49999997  0.83453247  0.67436771  1
  H  H73  1  0.50000002  0.84571092  0.87668032  1
  H  H74  1  0.49999995  0.75992671  0.07597948  1
  H  H75  1  0.50000002  0.76050273  0.30949070  1
  H  H76  1  0.49999993  0.79203000  0.46700687  1
  H  H77  1  0.50000010  0.80790428  0.02165840  1
