# generated using pymatgen
data_H7C26
_symmetry_space_group_name_H-M   'P 1'
_cell_length_a   10.00000000
_cell_length_b   25.62946000
_cell_length_c   9.89246388
_cell_angle_alpha   90.00000000
_cell_angle_beta   90.00000000
_cell_angle_gamma   90.00000000
_symmetry_Int_Tables_number   1
_chemical_formula_structural   H7C26
_chemical_formula_sum   'H14 C52'
_cell_volume   2535.38507425
_cell_formula_units_Z   2
loop_
 _symmetry_equiv_pos_site_id
 _symmetry_equiv_pos_as_xyz
  1  'x, y, z'
loop_
 _atom_site_type_symbol
 _atom_site_label
 _atom_site_symmetry_multiplicity
 _atom_site_fract_x
 _atom_site_fract_y
 _atom_site_fract_z
 _atom_site_occupancy
  C  C0  1  0.49999906  0.82189466  0.62760939  1
  C  C1  1  0.49999952  0.80721389  0.87019895  1
  C  C2  1  0.49999785  0.19218994  0.04904132  1
  C  C3  1  0.49999798  0.19218693  0.29904075  1
  C  C4  1  0.49999650  0.19209586  0.54909018  1
  C  C5  1  0.49999707  0.19208419  0.79903840  1
  C  C6  1  0.49999769  0.21878440  0.17393925  1
  C  C7  1  0.49999685  0.21868696  0.42416617  1
  C  C8  1  0.49999654  0.21868323  0.67413425  1
  C  C9  1  0.49999744  0.21874009  0.92388119  1
  C  C10  1  0.49999770  0.27526353  0.17384117  1
  C  C11  1  0.49999705  0.27514183  0.42430770  1
  C  C12  1  0.49999713  0.27516495  0.67415403  1
  C  C13  1  0.49999791  0.27518850  0.92367732  1
  C  C14  1  0.49999867  0.30279532  0.04858307  1
  C  C15  1  0.49999792  0.30271118  0.29926974  1
  C  C16  1  0.49999779  0.30278363  0.54920843  1
  C  C17  1  0.49999833  0.30289712  0.79878408  1
  C  C18  1  0.50000053  0.35869438  0.04809793  1
  C  C19  1  0.50000031  0.35855551  0.29935776  1
  C  C20  1  0.50000011  0.35876172  0.54938229  1
  C  C21  1  0.50000027  0.35902070  0.79847861  1
  C  C22  1  0.50000170  0.38572931  0.17338228  1
  C  C23  1  0.50000143  0.38624915  0.42481460  1
  C  C24  1  0.50000136  0.38696205  0.67397244  1
  C  C25  1  0.50000138  0.38687282  0.92303505  1
  C  C26  1  0.50000300  0.44127545  0.17304413  1
  C  C27  1  0.50000301  0.44217054  0.42528344  1
  C  C28  1  0.50000308  0.44313751  0.67391863  1
  C  C29  1  0.50000262  0.44284374  0.92246586  1
  C  C30  1  0.50000275  0.46952903  0.04903122  1
  C  C31  1  0.50000292  0.46810080  0.29852207  1
  C  C32  1  0.50000332  0.47115160  0.54925543  1
  C  C33  1  0.50000284  0.47134775  0.79763063  1
  C  C34  1  0.50000152  0.52526730  0.05103249  1
  C  C35  1  0.50000033  0.52327044  0.29796164  1
  C  C36  1  0.50000167  0.52787012  0.54769380  1
  C  C37  1  0.50000256  0.52801349  0.79648160  1
  C  C38  1  0.49999968  0.55060052  0.17488392  1
  C  C39  1  0.49999769  0.55076695  0.42019424  1
  C  C40  1  0.50000255  0.55814448  0.67424150  1
  C  C41  1  0.50000131  0.55416934  0.92428428  1
  C  C42  1  0.50000291  0.61546424  0.68318967  1
  C  C43  1  0.49999958  0.60809821  0.92881330  1
  C  C44  1  0.50000558  0.65248061  0.57460541  1
  C  C45  1  0.50000057  0.63985887  0.81464616  1
  C  C46  1  0.50000216  0.70596228  0.59197684  1
  C  C47  1  0.49999988  0.69662266  0.83423399  1
  C  C48  1  0.49999934  0.73025512  0.71946167  1
  C  C49  1  0.50000037  0.71973955  0.96417512  1
  C  C50  1  0.49999899  0.78717479  0.73495729  1
  C  C51  1  0.50000018  0.77412707  0.98055698  1
  H  H52  1  0.49999954  0.86398871  0.64768188  1
  H  H53  1  0.49999971  0.84963614  0.88426913  1
  H  H54  1  0.49999863  0.14937343  0.04916729  1
  H  H55  1  0.49999874  0.14936683  0.29930329  1
  H  H56  1  0.49999625  0.14929944  0.54934657  1
  H  H57  1  0.49999736  0.14928817  0.79920810  1
  H  H58  1  0.49999901  0.80968134  0.52171102  1
  H  H59  1  0.49999805  0.59313651  0.18163749  1
  H  H60  1  0.49999036  0.59235167  0.40681566  1
  H  H61  1  0.50001289  0.64161475  0.46933106  1
  H  H62  1  0.50000322  0.72989700  0.50033546  1
  H  H63  1  0.49999751  0.62680973  0.02712715  1
  H  H64  1  0.50000136  0.69608042  0.05598842  1
  H  H65  1  0.50000085  0.79036738  0.08304985  1
