# generated using pymatgen
data_H5C12
_symmetry_space_group_name_H-M   'P 1'
_cell_length_a   10.00000000
_cell_length_b   29.89204000
_cell_length_c   9.90000670
_cell_angle_alpha   90.00000000
_cell_angle_beta   90.00000000
_cell_angle_gamma   90.00000000
_symmetry_Int_Tables_number   1
_chemical_formula_structural   H5C12
_chemical_formula_sum   'H20 C48'
_cell_volume   2959.31396171
_cell_formula_units_Z   4
loop_
 _symmetry_equiv_pos_site_id
 _symmetry_equiv_pos_as_xyz
  1  'x, y, z'
loop_
 _atom_site_type_symbol
 _atom_site_label
 _atom_site_symmetry_multiplicity
 _atom_site_fract_x
 _atom_site_fract_y
 _atom_site_fract_z
 _atom_site_occupancy
  C  C0  1  0.50000004  0.20270069  0.46871662  1
  C  C1  1  0.50000039  0.19637089  0.71359035  1
  C  C2  1  0.50000026  0.22341751  0.59404776  1
  C  C3  1  0.50000026  0.21531200  0.84134534  1
  C  C4  1  0.50000011  0.27216216  0.61206196  1
  C  C5  1  0.49999993  0.26185445  0.85798612  1
  C  C6  1  0.50000003  0.30163033  0.50017002  1
  C  C7  1  0.49999978  0.29099758  0.74495725  1
  C  C8  1  0.49999906  0.34749359  0.51556747  1
  C  C9  1  0.49999862  0.33936008  0.76086765  1
  C  C10  1  0.49999784  0.36790904  0.64539702  1
  C  C11  1  0.49999754  0.35976191  0.89081620  1
  C  C12  1  0.49999578  0.41609623  0.66227198  1
  C  C13  1  0.49999483  0.40545086  0.90684360  1
  C  C14  1  0.49999710  0.44614798  0.55059352  1
  C  C15  1  0.49999397  0.43506676  0.79415843  1
  C  C16  1  0.49999617  0.49191017  0.56731450  1
  C  C17  1  0.49999620  0.48316216  0.81072145  1
  C  C18  1  0.49999534  0.51222266  0.69776026  1
  C  C19  1  0.50002172  0.50396222  0.93940657  1
  C  C20  1  0.49999778  0.56074723  0.71735628  1
  C  C21  1  0.50004011  0.54959266  0.95697872  1
  C  C22  1  0.49999396  0.58804148  0.60310291  1
  C  C23  1  0.50001092  0.58159755  0.84873959  1
  C  C24  1  0.49996174  0.63730539  0.11259007  1
  C  C25  1  0.49998316  0.63757794  0.35769392  1
  C  C26  1  0.49999869  0.63427737  0.60808514  1
  C  C27  1  0.50000129  0.63077439  0.85831359  1
  C  C28  1  0.49998301  0.66097956  0.23465043  1
  C  C29  1  0.49999605  0.65916484  0.48144569  1
  C  C30  1  0.50000106  0.65654387  0.73610141  1
  C  C31  1  0.49999176  0.65678364  0.98511985  1
  C  C32  1  0.50000181  0.70840215  0.23438663  1
  C  C33  1  0.50000136  0.70708884  0.48366129  1
  C  C34  1  0.50000185  0.70533368  0.73520122  1
  C  C35  1  0.50000488  0.70560296  0.98379623  1
  C  C36  1  0.50000428  0.73045160  0.10757093  1
  C  C37  1  0.50000423  0.73134223  0.35990825  1
  C  C38  1  0.50000206  0.72960853  0.61054355  1
  C  C39  1  0.50000542  0.72932329  0.85899421  1
  C  C40  1  0.50000417  0.77896717  0.10821793  1
  C  C41  1  0.50000427  0.77958575  0.35974383  1
  C  C42  1  0.50000228  0.77808956  0.61006659  1
  C  C43  1  0.50000407  0.77788740  0.85904676  1
  C  C44  1  0.50000334  0.80186296  0.23360340  1
  C  C45  1  0.50000225  0.80160516  0.48563066  1
  C  C46  1  0.50000176  0.80079848  0.73469409  1
  C  C47  1  0.50000331  0.80132308  0.98312563  1
  H  H48  1  0.50000003  0.16608592  0.46279355  1
  H  H49  1  0.50000048  0.15990345  0.70170997  1
  H  H50  1  0.50000132  0.83856848  0.23273153  1
  H  H51  1  0.50000037  0.83830642  0.48822672  1
  H  H52  1  0.49999966  0.83752318  0.73476042  1
  H  H53  1  0.50000133  0.83804399  0.98114270  1
  H  H54  1  0.49999973  0.22111812  0.37329490  1
  H  H55  1  0.50000048  0.28791155  0.39765686  1
  H  H56  1  0.49999889  0.36825283  0.42468457  1
  H  H57  1  0.49999993  0.43310764  0.44732792  1
  H  H58  1  0.49999867  0.51229046  0.47560647  1
  H  H59  1  0.49998966  0.57193584  0.50494528  1
  H  H60  1  0.49990660  0.60163126  0.12605623  1
  H  H61  1  0.49997727  0.60113189  0.35066229  1
  H  H62  1  0.50000021  0.19370172  -0.06910537  1
  H  H63  1  0.49999959  0.27538218  -0.03943269  1
  H  H64  1  0.49999878  0.33898958  -0.01827137  1
  H  H65  1  0.49999316  0.41898102  0.00940370  1
  H  H66  1  0.50003942  0.48336957  0.03070561  1
  H  H67  1  0.50009857  0.55910440  0.06213784  1
