# generated using pymatgen
data_HC2
_symmetry_space_group_name_H-M   'P 1'
_cell_length_a   10.00000000
_cell_length_b   25.62946000
_cell_length_c   9.99787119
_cell_angle_alpha   90.00000000
_cell_angle_beta   90.00000000
_cell_angle_gamma   90.00000000
_symmetry_Int_Tables_number   1
_chemical_formula_structural   HC2
_chemical_formula_sum   'H20 C40'
_cell_volume   2562.40039738
_cell_formula_units_Z   20
loop_
 _symmetry_equiv_pos_site_id
 _symmetry_equiv_pos_as_xyz
  1  'x, y, z'
loop_
 _atom_site_type_symbol
 _atom_site_label
 _atom_site_symmetry_multiplicity
 _atom_site_fract_x
 _atom_site_fract_y
 _atom_site_fract_z
 _atom_site_occupancy
  C  C0  1  0.49999870  0.80492634  0.50494707  1
  C  C1  1  0.50000173  0.81344120  0.74710427  1
  C  C2  1  0.50000277  0.19405171  0.55636576  1
  C  C3  1  0.50000385  0.18460743  0.79646195  1
  C  C4  1  0.50000290  0.21738227  0.68102882  1
  C  C5  1  0.49998628  0.20691497  0.92146261  1
  C  C6  1  0.50000132  0.27450444  0.70258196  1
  C  C7  1  0.49996972  0.26132361  0.93989417  1
  C  C8  1  0.50000300  0.30616045  0.59081360  1
  C  C9  1  0.49999114  0.29837374  0.83395628  1
  C  C10  1  0.50002450  0.36209462  0.09572244  1
  C  C11  1  0.50001181  0.36094563  0.34379458  1
  C  C12  1  0.50000120  0.36033210  0.59481986  1
  C  C13  1  0.49999795  0.35614200  0.84328233  1
  C  C14  1  0.50001058  0.38752387  0.22039696  1
  C  C15  1  0.50000373  0.38747503  0.46626183  1
  C  C16  1  0.49999927  0.38649909  0.72259332  1
  C  C17  1  0.50000481  0.38610309  0.96948223  1
  C  C18  1  0.49999960  0.44280502  0.22040195  1
  C  C19  1  0.49999941  0.44335979  0.46618373  1
  C  C20  1  0.49999889  0.44392494  0.72302248  1
  C  C21  1  0.49999827  0.44357778  0.96974072  1
  C  C22  1  0.50000192  0.46776917  0.09542497  1
  C  C23  1  0.49999677  0.46965019  0.34385218  1
  C  C24  1  0.49999916  0.47046980  0.59562982  1
  C  C25  1  0.49999667  0.47404560  0.84418084  1
  C  C26  1  0.50000151  0.52439276  0.59299960  1
  C  C27  1  0.49999543  0.53163790  0.83603201  1
  C  C28  1  0.50000092  0.55609636  0.70635141  1
  C  C29  1  0.49998869  0.56923284  0.94293733  1
  C  C30  1  0.50000292  0.61268219  0.68685835  1
  C  C31  1  0.49999525  0.62252337  0.92549522  1
  C  C32  1  0.50000309  0.63601826  0.55772259  1
  C  C33  1  0.50000270  0.64682315  0.79847263  1
  C  C34  1  0.50000224  0.68949271  0.54099085  1
  C  C35  1  0.50000355  0.70314434  0.78198786  1
  C  C36  1  0.50000218  0.72458700  0.64987506  1
  C  C37  1  0.50000424  0.73762102  0.89267564  1
  C  C38  1  0.50000082  0.78132684  0.62974877  1
  C  C39  1  0.50000326  0.79186240  0.87417018  1
  H  H40  1  0.49999839  0.84761758  0.49765788  1
  H  H41  1  0.50000115  0.85594073  0.73388221  1
  H  H42  1  0.50000325  0.15136841  0.54969484  1
  H  H43  1  0.50000970  0.14217103  0.78345203  1
  H  H44  1  0.49999766  0.78315182  0.41085777  1
  H  H45  1  0.50000119  0.21532205  0.46160032  1
  H  H46  1  0.50000337  0.28724048  0.49359374  1
  H  H47  1  0.50006593  0.32036205  0.10513575  1
  H  H48  1  0.50001610  0.31832023  0.33872802  1
  H  H49  1  0.50001216  0.50948831  0.10299173  1
  H  H50  1  0.49999264  0.51230744  0.33889312  1
  H  H51  1  0.50000368  0.54343287  0.49616113  1
  H  H52  1  0.50000311  0.61220065  0.46710844  1
  H  H53  1  0.50000139  0.70493883  0.43907521  1
  H  H54  1  0.49997953  0.18207988  0.01085219  1
  H  H55  1  0.49992427  0.27161664  0.04433821  1
  H  H56  1  0.49997285  0.55901335  0.04761024  1
  H  H57  1  0.49999095  0.64638323  0.01623353  1
  H  H58  1  0.50000589  0.72232177  -0.00529245  1
  H  H59  1  0.50000398  0.81761509  -0.03829818  1
