# generated using pymatgen
data_HC2
_symmetry_space_group_name_H-M   'P 1'
_cell_length_a   10.00000000
_cell_length_b   21.36688000
_cell_length_c   9.91060159
_cell_angle_alpha   90.00000000
_cell_angle_beta   90.00000000
_cell_angle_gamma   90.00000000
_symmetry_Int_Tables_number   1
_chemical_formula_structural   HC2
_chemical_formula_sum   'H14 C28'
_cell_volume   2117.58634898
_cell_formula_units_Z   14
loop_
 _symmetry_equiv_pos_site_id
 _symmetry_equiv_pos_as_xyz
  1  'x, y, z'
loop_
 _atom_site_type_symbol
 _atom_site_label
 _atom_site_symmetry_multiplicity
 _atom_site_fract_x
 _atom_site_fract_y
 _atom_site_fract_z
 _atom_site_occupancy
  C  C0  1  0.50000201  0.26554303  0.61881804  1
  C  C1  1  0.50000213  0.28252811  0.86137814  1
  C  C2  1  0.50000182  0.30685983  0.72635662  1
  C  C3  1  0.50000145  0.32202964  0.97165432  1
  C  C4  1  0.50000110  0.37529742  0.71137225  1
  C  C5  1  0.50000053  0.38741694  0.95574874  1
  C  C6  1  0.49999989  0.40470555  0.58473840  1
  C  C7  1  0.50000064  0.41537374  0.82687337  1
  C  C8  1  0.49999865  0.46909509  0.56849565  1
  C  C9  1  0.50000018  0.48368392  0.80868663  1
  C  C10  1  0.49999955  0.51286885  0.67704677  1
  C  C11  1  0.50000026  0.52169558  0.92274403  1
  C  C12  1  0.49999987  0.59297073  0.16806073  1
  C  C13  1  0.50000104  0.59177612  0.41127499  1
  C  C14  1  0.49999957  0.58159736  0.66710421  1
  C  C15  1  0.49999960  0.58677209  0.91788926  1
  C  C16  1  0.49999960  0.62231017  0.04346796  1
  C  C17  1  0.50000007  0.62609945  0.29044428  1
  C  C18  1  0.49999976  0.61751770  0.54009094  1
  C  C19  1  0.49999933  0.61710682  0.78951273  1
  C  C20  1  0.49999962  0.69018647  0.04109698  1
  C  C21  1  0.49999948  0.69347343  0.29119387  1
  C  C22  1  0.49999844  0.68618320  0.54185641  1
  C  C23  1  0.49999862  0.68556961  0.79013801  1
  C  C24  1  0.49999983  0.72407311  0.16419742  1
  C  C25  1  0.49999871  0.72144058  0.42032574  1
  C  C26  1  0.49999758  0.71766981  0.66659999  1
  C  C27  1  0.49999912  0.71917920  0.91310371  1
  H  H28  1  0.50000243  0.21503039  0.63788175  1
  H  H29  1  0.50000272  0.23160713  0.87526717  1
  H  H30  1  0.50000009  0.77539959  0.16011439  1
  H  H31  1  0.49999846  0.77264092  0.42955099  1
  H  H32  1  0.49999622  0.76902663  0.66663395  1
  H  H33  1  0.49999889  0.77048356  0.90804523  1
  H  H34  1  0.50000179  0.28027496  0.51315571  1
  H  H35  1  0.49999956  0.37633449  0.49277515  1
  H  H36  1  0.49999615  0.48347347  0.46412914  1
  H  H37  1  0.49999982  0.54191818  0.17603255  1
  H  H38  1  0.50000324  0.54196987  0.39434809  1
  H  H39  1  0.50000161  0.30240876  0.07383693  1
  H  H40  1  0.49999966  0.41615824  0.04691067  1
  H  H41  1  0.50000092  0.49921867  0.02104809  1
