# generated using pymatgen
data_HC2
_symmetry_space_group_name_H-M   'P 1'
_cell_length_a   10.00000000
_cell_length_b   25.62946000
_cell_length_c   9.97760075
_cell_angle_alpha   90.00000000
_cell_angle_beta   90.00000000
_cell_angle_gamma   90.00000000
_symmetry_Int_Tables_number   1
_chemical_formula_structural   HC2
_chemical_formula_sum   'H20 C40'
_cell_volume   2557.20519281
_cell_formula_units_Z   20
loop_
 _symmetry_equiv_pos_site_id
 _symmetry_equiv_pos_as_xyz
  1  'x, y, z'
loop_
 _atom_site_type_symbol
 _atom_site_label
 _atom_site_symmetry_multiplicity
 _atom_site_fract_x
 _atom_site_fract_y
 _atom_site_fract_z
 _atom_site_occupancy
  C  C0  1  0.49999264  0.82313072  0.61319386  1
  C  C1  1  0.49999571  0.80854237  0.85446794  1
  C  C2  1  0.50000610  0.17686947  0.61319532  1
  C  C3  1  0.50000513  0.19145757  0.85446829  1
  C  C4  1  0.50000485  0.21133607  0.72018841  1
  C  C5  1  0.50000378  0.22482870  0.96351726  1
  C  C6  1  0.50000327  0.26822322  0.70415997  1
  C  C7  1  0.50000255  0.27922832  0.94642013  1
  C  C8  1  0.50000147  0.29233873  0.57762838  1
  C  C9  1  0.50000257  0.30218143  0.81721616  1
  C  C10  1  0.49999953  0.34578263  0.55969974  1
  C  C11  1  0.50000155  0.35897121  0.79660887  1
  C  C12  1  0.50000030  0.38330356  0.66628937  1
  C  C13  1  0.50000169  0.39090756  0.90929809  1
  C  C14  1  0.49999971  0.44565122  0.15732575  1
  C  C15  1  0.49999997  0.44722227  0.40568077  1
  C  C16  1  0.50000003  0.44089973  0.65737060  1
  C  C17  1  0.50000050  0.44485457  0.90575638  1
  C  C18  1  0.50000007  0.47208989  0.03491752  1
  C  C19  1  0.49999980  0.47240137  0.28079312  1
  C  C20  1  0.49999989  0.47128075  0.53161188  1
  C  C21  1  0.50000013  0.47126732  0.77807322  1
  C  C22  1  0.50000005  0.52791074  0.03492077  1
  C  C23  1  0.50000033  0.52759854  0.28079010  1
  C  C24  1  0.50000003  0.52871989  0.53160814  1
  C  C25  1  0.49999990  0.52873292  0.77807495  1
  C  C26  1  0.50000037  0.55434814  0.15732596  1
  C  C27  1  0.50000065  0.55277702  0.40568627  1
  C  C28  1  0.49999973  0.55910001  0.65737041  1
  C  C29  1  0.49999967  0.55514440  0.90575459  1
  C  C30  1  0.49999912  0.61669677  0.66629091  1
  C  C31  1  0.49999871  0.60909339  0.90930040  1
  C  C32  1  0.49999863  0.65421601  0.55969750  1
  C  C33  1  0.49999867  0.64102831  0.79660712  1
  C  C34  1  0.49999724  0.70766280  0.57762916  1
  C  C35  1  0.49999791  0.69781859  0.81721725  1
  C  C36  1  0.49999653  0.73177621  0.70415846  1
  C  C37  1  0.49999896  0.72077181  0.94642025  1
  C  C38  1  0.49999499  0.78866374  0.72018920  1
  C  C39  1  0.49999785  0.77517108  0.96351692  1
  H  H40  1  0.49999165  0.86532920  0.63136309  1
  H  H41  1  0.49999474  0.85094957  0.86914960  1
  H  H42  1  0.50000693  0.13467052  0.63136301  1
  H  H43  1  0.50000642  0.14905040  0.86915004  1
  H  H44  1  0.49999148  0.81034267  0.50858791  1
  H  H45  1  0.50000603  0.18965739  0.50858767  1
  H  H46  1  0.50000104  0.26833075  0.48684132  1
  H  H47  1  0.49999686  0.35595122  0.45480378  1
  H  H48  1  0.49999929  0.40304797  0.16249813  1
  H  H49  1  0.50000075  0.40551832  0.39756067  1
  H  H50  1  0.50000060  0.59695281  0.16249872  1
  H  H51  1  0.50000149  0.59448216  0.39756016  1
  H  H52  1  0.49999931  0.64404900  0.45480507  1
  H  H53  1  0.49999700  0.73166918  0.48684172  1
  H  H54  1  0.50000342  0.20883193  0.06552337  1
  H  H55  1  0.50000143  0.30312091  0.03706496  1
  H  H56  1  0.50000298  0.37192642  0.00638718  1
  H  H57  1  0.49999754  0.62807339  0.00638580  1
  H  H58  1  0.50000134  0.69687903  0.03706506  1
  H  H59  1  0.49999911  0.79116811  0.06552337  1
