# generated using pymatgen
data_H2C5
_symmetry_space_group_name_H-M   'P 1'
_cell_length_a   10.00000000
_cell_length_b   25.62946000
_cell_length_c   9.90983977
_cell_angle_alpha   90.00000000
_cell_angle_beta   90.00000000
_cell_angle_gamma   90.00000000
_symmetry_Int_Tables_number   1
_chemical_formula_structural   H2C5
_chemical_formula_sum   'H16 C40'
_cell_volume   2539.83841928
_cell_formula_units_Z   8
loop_
 _symmetry_equiv_pos_site_id
 _symmetry_equiv_pos_as_xyz
  1  'x, y, z'
loop_
 _atom_site_type_symbol
 _atom_site_label
 _atom_site_symmetry_multiplicity
 _atom_site_fract_x
 _atom_site_fract_y
 _atom_site_fract_z
 _atom_site_occupancy
  C  C0  1  0.49999925  0.23751270  0.49838599  1
  C  C1  1  0.49999598  0.22954085  0.74311154  1
  C  C2  1  0.49999877  0.26126404  0.62399734  1
  C  C3  1  0.49999755  0.25154222  0.87087209  1
  C  C4  1  0.50000097  0.31806362  0.64263175  1
  C  C5  1  0.50000118  0.30580641  0.88812838  1
  C  C6  1  0.50000115  0.35280452  0.53185736  1
  C  C7  1  0.50000215  0.33982993  0.77556391  1
  C  C8  1  0.50000188  0.40633835  0.54802430  1
  C  C9  1  0.50000281  0.39611998  0.79137129  1
  C  C10  1  0.50000234  0.42988842  0.67807072  1
  C  C11  1  0.50000082  0.42042195  0.91954625  1
  C  C12  1  0.50000146  0.48645736  0.69721521  1
  C  C13  1  0.49999832  0.47367534  0.93666701  1
  C  C14  1  0.50000083  0.51821442  0.58307459  1
  C  C15  1  0.50000007  0.51079523  0.82837842  1
  C  C16  1  0.50000315  0.57549418  0.09294933  1
  C  C17  1  0.50000069  0.57579271  0.33771421  1
  C  C18  1  0.49999959  0.57213576  0.58808282  1
  C  C19  1  0.49999982  0.56803394  0.83826462  1
  C  C20  1  0.50000016  0.60316204  0.21488884  1
  C  C21  1  0.49999929  0.60105111  0.46139936  1
  C  C22  1  0.49999921  0.59805094  0.71610936  1
  C  C23  1  0.50000004  0.59813784  0.96536485  1
  C  C24  1  0.49999804  0.65849871  0.21466872  1
  C  C25  1  0.49999857  0.65698266  0.46364525  1
  C  C26  1  0.49999894  0.65484618  0.71547522  1
  C  C27  1  0.49999833  0.65507097  0.96413324  1
  C  C28  1  0.49999824  0.68411986  0.08780575  1
  C  C29  1  0.49999814  0.68531807  0.34015286  1
  C  C30  1  0.49999900  0.68317203  0.59077195  1
  C  C31  1  0.49999884  0.68270070  0.83930453  1
  C  C32  1  0.49999930  0.74071278  0.08837750  1
  C  C33  1  0.49999893  0.74162298  0.34017936  1
  C  C34  1  0.49999999  0.73971875  0.59050749  1
  C  C35  1  0.50000026  0.73932411  0.83942087  1
  C  C36  1  0.49999956  0.76753765  0.21376859  1
  C  C37  1  0.49999993  0.76725059  0.46618680  1
  C  C38  1  0.50000131  0.76610732  0.71523558  1
  C  C39  1  0.50000067  0.76670943  0.96331951  1
  H  H40  1  0.49999662  0.19485590  0.49093002  1
  H  H41  1  0.49999295  0.18700070  0.73080196  1
  H  H42  1  0.50000028  0.81038637  0.21259719  1
  H  H43  1  0.50000110  0.81007171  0.46889188  1
  H  H44  1  0.50000269  0.80891562  0.71561235  1
  H  H45  1  0.50000212  0.80951572  0.96129510  1
  H  H46  1  0.50000238  0.25945127  0.40378759  1
  H  H47  1  0.50000008  0.33711889  0.42913924  1
  H  H48  1  0.50000159  0.43015906  0.45655072  1
  H  H49  1  0.50000102  0.49949101  0.48493138  1
  H  H50  1  0.50001017  0.53391551  0.10733854  1
  H  H51  1  0.50000202  0.53324555  0.33030490  1
  H  H52  1  0.49999597  0.22630683  -0.03986651  1
  H  H53  1  0.50000280  0.32152242  -0.00933739  1
  H  H54  1  0.50000000  0.39649604  0.01088314  1
  H  H55  1  0.49999269  0.48487711  0.04151712  1
