# generated using pymatgen
data_HC6
_symmetry_space_group_name_H-M   'P 1'
_cell_length_a   10.00000000
_cell_length_b   29.89204000
_cell_length_c   9.89523659
_cell_angle_alpha   90.00000000
_cell_angle_beta   90.00000000
_cell_angle_gamma   90.00000000
_symmetry_Int_Tables_number   1
_chemical_formula_structural   HC6
_chemical_formula_sum   'H12 C72'
_cell_volume   2957.88807833
_cell_formula_units_Z   12
loop_
 _symmetry_equiv_pos_site_id
 _symmetry_equiv_pos_as_xyz
  1  'x, y, z'
loop_
 _atom_site_type_symbol
 _atom_site_label
 _atom_site_symmetry_multiplicity
 _atom_site_fract_x
 _atom_site_fract_y
 _atom_site_fract_z
 _atom_site_occupancy
  C  C0  1  0.49999999  0.84737188  0.58919919  1
  C  C1  1  0.50000001  0.83440152  0.82165369  1
  C  C2  1  0.49999999  0.15262815  0.58919932  1
  C  C3  1  0.50000001  0.16559853  0.82165366  1
  C  C4  1  0.50000000  0.18544106  0.68866428  1
  C  C5  1  0.50000001  0.18971992  0.93788485  1
  C  C6  1  0.50000000  0.23967867  0.18531759  1
  C  C7  1  0.50000001  0.23956986  0.43178255  1
  C  C8  1  0.50000000  0.23492756  0.68306717  1
  C  C9  1  0.50000000  0.23718731  0.93545472  1
  C  C10  1  0.50000000  0.26161654  0.06057163  1
  C  C11  1  0.50000000  0.26289047  0.30872609  1
  C  C12  1  0.50000000  0.26026719  0.55831215  1
  C  C13  1  0.50000000  0.25968648  0.80760044  1
  C  C14  1  0.50000000  0.30955425  0.05920766  1
  C  C15  1  0.50000000  0.31048157  0.30890673  1
  C  C16  1  0.50000000  0.30868145  0.55937265  1
  C  C17  1  0.50000000  0.30819642  0.80837147  1
  C  C18  1  0.50000000  0.33362078  0.18351430  1
  C  C19  1  0.50000000  0.33316843  0.43489247  1
  C  C20  1  0.50000000  0.33237124  0.68423979  1
  C  C21  1  0.50000000  0.33253331  0.93321569  1
  C  C22  1  0.50000000  0.38125413  0.18349797  1
  C  C23  1  0.50000000  0.38096788  0.43456555  1
  C  C24  1  0.50000000  0.38042410  0.68407159  1
  C  C25  1  0.50000000  0.38045359  0.93332367  1
  C  C26  1  0.50000000  0.40461900  0.05816366  1
  C  C27  1  0.50000000  0.40470861  0.30917125  1
  C  C28  1  0.50000000  0.40452779  0.55942252  1
  C  C29  1  0.50000000  0.40432518  0.80862522  1
  C  C30  1  0.50000000  0.45238125  0.05836843  1
  C  C31  1  0.50000000  0.45243017  0.30893376  1
  C  C32  1  0.50000000  0.45231741  0.55912442  1
  C  C33  1  0.50000000  0.45219777  0.80868704  1
  C  C34  1  0.50000000  0.47611330  0.18356364  1
  C  C35  1  0.50000000  0.47611841  0.43407411  1
  C  C36  1  0.50000000  0.47609720  0.68402770  1
  C  C37  1  0.50000000  0.47611770  0.93341172  1
  C  C38  1  0.50000000  0.52388667  0.18356365  1
  C  C39  1  0.50000000  0.52388155  0.43407411  1
  C  C40  1  0.50000000  0.52390276  0.68402771  1
  C  C41  1  0.50000000  0.52388227  0.93341172  1
  C  C42  1  0.50000000  0.54761871  0.05836844  1
  C  C43  1  0.50000000  0.54756980  0.30893376  1
  C  C44  1  0.50000000  0.54768256  0.55912442  1
  C  C45  1  0.50000000  0.54780219  0.80868705  1
  C  C46  1  0.50000000  0.59538097  0.05816364  1
  C  C47  1  0.50000000  0.59529135  0.30917125  1
  C  C48  1  0.50000000  0.59547218  0.55942254  1
  C  C49  1  0.50000000  0.59567479  0.80862523  1
  C  C50  1  0.50000000  0.61874585  0.18349801  1
  C  C51  1  0.50000000  0.61903211  0.43456554  1
  C  C52  1  0.50000000  0.61957588  0.68407157  1
  C  C53  1  0.50000000  0.61954638  0.93332370  1
  C  C54  1  0.50000000  0.66637920  0.18351426  1
  C  C55  1  0.50000000  0.66683154  0.43489249  1
  C  C56  1  0.50000000  0.66762873  0.68423983  1
  C  C57  1  0.50000000  0.66746666  0.93321569  1
  C  C58  1  0.50000000  0.69044573  0.05920771  1
  C  C59  1  0.50000000  0.68951840  0.30890676  1
  C  C60  1  0.50000000  0.69131852  0.55937259  1
  C  C61  1  0.50000000  0.69180356  0.80837146  1
  C  C62  1  0.50000000  0.73838347  0.06057163  1
  C  C63  1  0.50000000  0.73710955  0.30872610  1
  C  C64  1  0.50000000  0.73973283  0.55831209  1
  C  C65  1  0.50000000  0.74031351  0.80760046  1
  C  C66  1  0.50000000  0.76032134  0.18531761  1
  C  C67  1  0.50000001  0.76043014  0.43178263  1
  C  C68  1  0.50000000  0.76507243  0.68306717  1
  C  C69  1  0.50000000  0.76281269  0.93545471  1
  C  C70  1  0.50000000  0.81455894  0.68866425  1
  C  C71  1  0.50000001  0.81028011  0.93788488  1
  H  H72  1  0.49999999  0.88217488  0.62443642  1
  H  H73  1  0.50000001  0.87103430  0.82642633  1
  H  H74  1  0.49999999  0.11782520  0.62443634  1
  H  H75  1  0.50000001  0.12896581  0.82642636  1
  H  H76  1  0.49999996  0.84415187  0.48000963  1
  H  H77  1  0.49999996  0.15584819  0.48001000  1
  H  H78  1  0.50000000  0.20320060  0.19049214  1
  H  H79  1  0.50000002  0.20360846  0.42397418  1
  H  H80  1  0.50000000  0.79679952  0.19049213  1
  H  H81  1  0.50000002  0.79639166  0.42397418  1
  H  H82  1  0.50000002  0.17166044  0.03367352  1
  H  H83  1  0.50000002  0.82833960  0.03367379  1
