# generated using pymatgen
data_H7C34
_symmetry_space_group_name_H-M   'P 1'
_cell_length_a   10.00000000
_cell_length_b   29.89204000
_cell_length_c   9.90071618
_cell_angle_alpha   90.00000000
_cell_angle_beta   90.00000000
_cell_angle_gamma   90.00000000
_symmetry_Int_Tables_number   1
_chemical_formula_structural   H7C34
_chemical_formula_sum   'H14 C68'
_cell_volume   2959.52603971
_cell_formula_units_Z   2
loop_
 _symmetry_equiv_pos_site_id
 _symmetry_equiv_pos_as_xyz
  1  'x, y, z'
loop_
 _atom_site_type_symbol
 _atom_site_label
 _atom_site_symmetry_multiplicity
 _atom_site_fract_x
 _atom_site_fract_y
 _atom_site_fract_z
 _atom_site_occupancy
  C  C0  1  0.50000004  0.83438790  0.52842949  1
  C  C1  1  0.49999999  0.84161527  0.77092008  1
  C  C2  1  0.49999995  0.15233087  0.59542592  1
  C  C3  1  0.50000002  0.16508873  0.82822094  1
  C  C4  1  0.49999999  0.18499950  0.69529733  1
  C  C5  1  0.50000002  0.18912449  0.94461449  1
  C  C6  1  0.50000001  0.23909260  0.19246277  1
  C  C7  1  0.50000002  0.23917207  0.43881923  1
  C  C8  1  0.50000000  0.23449109  0.68997401  1
  C  C9  1  0.50000001  0.23661490  0.94253014  1
  C  C10  1  0.50000000  0.26102254  0.06768881  1
  C  C11  1  0.50000001  0.26240716  0.31568935  1
  C  C12  1  0.50000000  0.25986101  0.56531697  1
  C  C13  1  0.50000000  0.25914051  0.81469649  1
  C  C14  1  0.50000000  0.30901923  0.06619317  1
  C  C15  1  0.50000000  0.31001343  0.31578484  1
  C  C16  1  0.50000000  0.30825658  0.56631203  1
  C  C17  1  0.50000000  0.30771488  0.81526859  1
  C  C18  1  0.50000000  0.33313922  0.19046264  1
  C  C19  1  0.50000000  0.33270235  0.44178199  1
  C  C20  1  0.50000000  0.33194276  0.69113091  1
  C  C21  1  0.50000000  0.33203628  0.94021578  1
  C  C22  1  0.50000000  0.38080827  0.19055542  1
  C  C23  1  0.50000000  0.38052781  0.44163592  1
  C  C24  1  0.50000000  0.38000933  0.69114560  1
  C  C25  1  0.50000000  0.38000531  0.94040874  1
  C  C26  1  0.50000000  0.40416245  0.06520609  1
  C  C27  1  0.50000000  0.40427382  0.31630167  1
  C  C28  1  0.50000000  0.40412436  0.56660189  1
  C  C29  1  0.50000000  0.40390502  0.81570542  1
  C  C30  1  0.50000000  0.45195788  0.06527682  1
  C  C31  1  0.50000000  0.45203893  0.31623174  1
  C  C32  1  0.50000000  0.45193280  0.56658592  1
  C  C33  1  0.50000000  0.45183086  0.81573868  1
  C  C34  1  0.50000000  0.47563388  0.19056873  1
  C  C35  1  0.50000000  0.47568348  0.44156780  1
  C  C36  1  0.50000000  0.47585098  0.69127463  1
  C  C37  1  0.50000000  0.47576070  0.94040633  1
  C  C38  1  0.50000000  0.52338221  0.19037863  1
  C  C39  1  0.50000000  0.52349419  0.44170961  1
  C  C40  1  0.50000000  0.52382723  0.69131057  1
  C  C41  1  0.50000000  0.52361671  0.94017072  1
  C  C42  1  0.50000000  0.54720673  0.06488933  1
  C  C43  1  0.50000000  0.54671681  0.31626339  1
  C  C44  1  0.50000000  0.54772376  0.56666109  1
  C  C45  1  0.50000000  0.54784442  0.81571993  1
  C  C46  1  0.50000000  0.59510131  0.06427489  1
  C  C47  1  0.50000000  0.59430753  0.31644307  1
  C  C48  1  0.50000000  0.59567592  0.56709044  1
  C  C49  1  0.49999999  0.59595460  0.81573414  1
  C  C50  1  0.50000000  0.61733145  0.19095937  1
  C  C51  1  0.50000000  0.61854216  0.44059108  1
  C  C52  1  0.50000000  0.62020939  0.69188932  1
  C  C53  1  0.49999999  0.62000718  0.94017150  1
  C  C54  1  0.50000002  0.66465116  0.19129779  1
  C  C55  1  0.50000000  0.66637914  0.43849343  1
  C  C56  1  0.50000000  0.66886592  0.69261366  1
  C  C57  1  0.50000001  0.66866913  0.94138471  1
  C  C58  1  0.50000004  0.68825520  0.06912495  1
  C  C59  1  0.50000002  0.68807071  0.31426810  1
  C  C60  1  0.50000000  0.69116782  0.56458042  1
  C  C61  1  0.49999999  0.69461102  0.81514612  1
  C  C62  1  0.50000001  0.73768422  0.56007996  1
  C  C63  1  0.49999998  0.74403434  0.80644173  1
  C  C64  1  0.50000000  0.76464438  0.67362074  1
  C  C65  1  0.49999994  0.77546117  0.91438897  1
  C  C66  1  0.50000001  0.81381184  0.65343432  1
  C  C67  1  0.49999995  0.82217860  0.89674248  1
  H  H68  1  0.50000003  0.87101682  0.52340359  1
  H  H69  1  0.50000001  0.87804777  0.75852512  1
  H  H70  1  0.49999997  0.11748571  0.63005468  1
  H  H71  1  0.50000003  0.12846030  0.83280022  1
  H  H72  1  0.50000005  0.81672306  0.43174494  1
  H  H73  1  0.49999989  0.15565033  0.48629422  1
  H  H74  1  0.50000002  0.20258962  0.19813580  1
  H  H75  1  0.50000006  0.20322103  0.43117821  1
  H  H76  1  0.50000011  0.72390485  0.08264313  1
  H  H77  1  0.50000001  0.72453658  0.30713070  1
  H  H78  1  0.50000002  0.75416997  0.46217257  1
  H  H79  1  0.50000003  0.17101294  0.04034070  1
  H  H80  1  0.49999986  0.76618891  0.01964183  1
  H  H81  1  0.49999994  0.84319037  -0.01238752  1
