# generated using pymatgen
data_H2C5
_symmetry_space_group_name_H-M   'P 1'
_cell_length_a   10.00000000
_cell_length_b   25.62946000
_cell_length_c   9.90923812
_cell_angle_alpha   90.00000000
_cell_angle_beta   90.00000000
_cell_angle_gamma   90.00000000
_symmetry_Int_Tables_number   1
_chemical_formula_structural   H2C5
_chemical_formula_sum   'H16 C40'
_cell_volume   2539.68422023
_cell_formula_units_Z   8
loop_
 _symmetry_equiv_pos_site_id
 _symmetry_equiv_pos_as_xyz
  1  'x, y, z'
loop_
 _atom_site_type_symbol
 _atom_site_label
 _atom_site_symmetry_multiplicity
 _atom_site_fract_x
 _atom_site_fract_y
 _atom_site_fract_z
 _atom_site_occupancy
  C  C0  1  0.49999993  0.23273450  0.03365283  1
  C  C1  1  0.50000035  0.23246066  0.28607318  1
  C  C2  1  0.49999934  0.23329823  0.53656385  1
  C  C3  1  0.49999865  0.23392500  0.78463153  1
  C  C4  1  0.50000091  0.25836240  0.15969140  1
  C  C5  1  0.50000060  0.25927915  0.41147759  1
  C  C6  1  0.49999967  0.26070326  0.66044607  1
  C  C7  1  0.49999987  0.26029839  0.90934106  1
  C  C8  1  0.50000168  0.31467527  0.15971497  1
  C  C9  1  0.50000158  0.31587209  0.41200210  1
  C  C10  1  0.50000101  0.31732919  0.66052439  1
  C  C11  1  0.50000083  0.31685355  0.90907767  1
  C  C12  1  0.50000130  0.34301464  0.03620069  1
  C  C13  1  0.50000183  0.34149806  0.28513929  1
  C  C14  1  0.50000152  0.34493875  0.53569219  1
  C  C15  1  0.50000092  0.34518792  0.78433598  1
  C  C16  1  0.50000067  0.39896587  0.03841210  1
  C  C17  1  0.50000004  0.39684571  0.28492066  1
  C  C18  1  0.50000007  0.40186315  0.53441325  1
  C  C19  1  0.50000074  0.40197025  0.78369029  1
  C  C20  1  0.49999950  0.42420734  0.16211741  1
  C  C21  1  0.49999739  0.42451747  0.40684952  1
  C  C22  1  0.50000021  0.43198525  0.66146053  1
  C  C23  1  0.50000040  0.42789723  0.91168712  1
  C  C24  1  0.49999991  0.48926003  0.67132770  1
  C  C25  1  0.49999927  0.48181319  0.91665523  1
  C  C26  1  0.50000134  0.52636643  0.56307361  1
  C  C27  1  0.49999868  0.51356004  0.80253458  1
  C  C28  1  0.49999922  0.57961359  0.58045900  1
  C  C29  1  0.49999780  0.57009491  0.82194438  1
  C  C30  1  0.49999750  0.60387759  0.70870923  1
  C  C31  1  0.49999800  0.59358395  0.95206865  1
  C  C32  1  0.49999808  0.66014804  0.72471954  1
  C  C33  1  0.49999860  0.64710359  0.96837700  1
  C  C34  1  0.49999911  0.69424652  0.61225627  1
  C  C35  1  0.49999903  0.68188233  0.85770823  1
  C  C36  1  0.50000267  0.74851644  0.62966650  1
  C  C37  1  0.50000124  0.73868943  0.87650466  1
  C  C38  1  0.50000411  0.77047974  0.75744808  1
  C  C39  1  0.50000070  0.76238112  1.00219909  1
  H  H40  1  0.49999883  0.18991822  0.03072060  1
  H  H41  1  0.49999968  0.18960546  0.28724791  1
  H  H42  1  0.49999797  0.19049601  0.53878166  1
  H  H43  1  0.49999732  0.19110738  0.78421669  1
  H  H44  1  0.50000713  0.81300521  0.76991486  1
  H  H45  1  0.50000334  0.80503172  1.00977944  1
  H  H46  1  0.49999834  0.46675879  0.16940726  1
  H  H47  1  0.49999119  0.46609975  0.39240579  1
  H  H48  1  0.50000603  0.51519914  0.45818258  1
  H  H49  1  0.50000006  0.60361212  0.48920985  1
  H  H50  1  0.49999756  0.67858053  0.50965609  1
  H  H51  1  0.50000431  0.77379911  0.54044847  1
  H  H52  1  0.49999906  0.50049841  0.01484691  1
  H  H53  1  0.49999804  0.56971201  0.04341377  1
  H  H54  1  0.49999937  0.66269199  0.07119599  1
  H  H55  1  0.49999752  0.74042750  0.09680469  1
