# generated using pymatgen
data_H3C16
_symmetry_space_group_name_H-M   'P 1'
_cell_length_a   10.00000000
_cell_length_b   29.89204000
_cell_length_c   9.88435058
_cell_angle_alpha   90.00000000
_cell_angle_beta   90.00000000
_cell_angle_gamma   90.00000000
_symmetry_Int_Tables_number   1
_chemical_formula_structural   H3C16
_chemical_formula_sum   'H12 C64'
_cell_volume   2954.63403012
_cell_formula_units_Z   4
loop_
 _symmetry_equiv_pos_site_id
 _symmetry_equiv_pos_as_xyz
  1  'x, y, z'
loop_
 _atom_site_type_symbol
 _atom_site_label
 _atom_site_symmetry_multiplicity
 _atom_site_fract_x
 _atom_site_fract_y
 _atom_site_fract_z
 _atom_site_occupancy
  C  C0  1  0.49999980  0.20206756  0.53093903  1
  C  C1  1  0.50000032  0.19460663  0.77421186  1
  C  C2  1  0.50000006  0.22237369  0.65652149  1
  C  C3  1  0.50000027  0.21417324  0.90005563  1
  C  C4  1  0.50000007  0.27156231  0.67675256  1
  C  C5  1  0.49999995  0.26091038  0.91777390  1
  C  C6  1  0.50000004  0.29854069  0.56308688  1
  C  C7  1  0.50000001  0.29227883  0.80950108  1
  C  C8  1  0.49999998  0.34824104  0.07127078  1
  C  C9  1  0.50000009  0.34813991  0.31631361  1
  C  C10  1  0.50000000  0.34504338  0.56709593  1
  C  C11  1  0.49999996  0.34171889  0.81753260  1
  C  C12  1  0.50000003  0.37175051  0.19355110  1
  C  C13  1  0.50000002  0.36977761  0.44074275  1
  C  C14  1  0.49999998  0.36745355  0.69494466  1
  C  C15  1  0.49999997  0.36778221  0.94351194  1
  C  C16  1  0.50000000  0.41905159  0.19335333  1
  C  C17  1  0.49999999  0.41765444  0.44279108  1
  C  C18  1  0.49999999  0.41613743  0.69419738  1
  C  C19  1  0.49999999  0.41643138  0.94245811  1
  C  C20  1  0.49999999  0.44131142  0.06666139  1
  C  C21  1  0.50000001  0.44201805  0.31892640  1
  C  C22  1  0.49999999  0.44060592  0.56926710  1
  C  C23  1  0.49999999  0.44048526  0.81798798  1
  C  C24  1  0.49999999  0.48922704  0.06723655  1
  C  C25  1  0.50000001  0.48964131  0.31870798  1
  C  C26  1  0.50000000  0.48865381  0.56877608  1
  C  C27  1  0.50000000  0.48860608  0.81793086  1
  C  C28  1  0.49999999  0.51305008  0.19278729  1
  C  C29  1  0.50000001  0.51298902  0.44390324  1
  C  C30  1  0.50000000  0.51260926  0.69335083  1
  C  C31  1  0.49999999  0.51285585  0.94249052  1
  C  C32  1  0.49999999  0.56086322  0.19288402  1
  C  C33  1  0.50000000  0.56082726  0.44339857  1
  C  C34  1  0.50000000  0.56063197  0.69307228  1
  C  C35  1  0.49999999  0.56076923  0.94272359  1
  C  C36  1  0.49999998  0.58462320  0.06776799  1
  C  C37  1  0.49999999  0.58462527  0.31815778  1
  C  C38  1  0.50000000  0.58461685  0.56828409  1
  C  C39  1  0.49999999  0.58457720  0.81775753  1
  C  C40  1  0.49999998  0.63252513  0.06783588  1
  C  C41  1  0.49999999  0.63252999  0.31806184  1
  C  C42  1  0.50000000  0.63250378  0.56810486  1
  C  C43  1  0.49999999  0.63249529  0.81783081  1
  C  C44  1  0.49999998  0.65630218  0.19290218  1
  C  C45  1  0.49999999  0.65630969  0.44301546  1
  C  C46  1  0.50000000  0.65631587  0.69296239  1
  C  C47  1  0.49999999  0.65630825  0.94285690  1
  C  C48  1  0.49999998  0.70425415  0.19277978  1
  C  C49  1  0.49999999  0.70427178  0.44279468  1
  C  C50  1  0.50000000  0.70428534  0.69278585  1
  C  C51  1  0.49999999  0.70427034  0.94277899  1
  C  C52  1  0.49999999  0.72797440  0.06775989  1
  C  C53  1  0.49999999  0.72797174  0.31778019  1
  C  C54  1  0.50000000  0.72799551  0.56776359  1
  C  C55  1  0.50000000  0.72799779  0.81772957  1
  C  C56  1  0.50000000  0.77638112  0.06768548  1
  C  C57  1  0.50000000  0.77637273  0.31768230  1
  C  C58  1  0.50000000  0.77638844  0.56767244  1
  C  C59  1  0.50000000  0.77639481  0.81766958  1
  C  C60  1  0.50000000  0.79918732  0.19267694  1
  C  C61  1  0.50000000  0.79918203  0.44264437  1
  C  C62  1  0.50000000  0.79920069  0.69267094  1
  C  C63  1  0.50000000  0.79921321  0.94268233  1
  H  H64  1  0.49999974  0.16547050  0.52375960  1
  H  H65  1  0.50000041  0.15815261  0.76199241  1
  H  H66  1  0.50000001  0.83588785  0.19259821  1
  H  H67  1  0.50000000  0.83587683  0.44268610  1
  H  H68  1  0.49999999  0.83589812  0.69271015  1
  H  H69  1  0.50000000  0.83591861  0.94255779  1
  H  H70  1  0.49999939  0.22028284  0.43510080  1
  H  H71  1  0.50000001  0.28215538  0.46498171  1
  H  H72  1  0.49999995  0.31264430  0.08500919  1
  H  H73  1  0.50000021  0.31167817  0.30872838  1
  H  H74  1  0.50000043  0.19317731  -0.00896270  1
  H  H75  1  0.49999960  0.27033579  0.02303331  1
