# generated using pymatgen
data_HC4
_symmetry_space_group_name_H-M   'P 1'
_cell_length_a   10.00000000
_cell_length_b   25.62946000
_cell_length_c   9.88747683
_cell_angle_alpha   90.00000000
_cell_angle_beta   90.00000000
_cell_angle_gamma   90.00000000
_symmetry_Int_Tables_number   1
_chemical_formula_structural   HC4
_chemical_formula_sum   'H12 C48'
_cell_volume   2534.10691915
_cell_formula_units_Z   12
loop_
 _symmetry_equiv_pos_site_id
 _symmetry_equiv_pos_as_xyz
  1  'x, y, z'
loop_
 _atom_site_type_symbol
 _atom_site_label
 _atom_site_symmetry_multiplicity
 _atom_site_fract_x
 _atom_site_fract_y
 _atom_site_fract_z
 _atom_site_occupancy
  C  C0  1  0.50000035  0.23454362  0.05456066  1
  C  C1  1  0.49999986  0.23456366  0.30460342  1
  C  C2  1  0.50000079  0.23447052  0.55467849  1
  C  C3  1  0.50000104  0.23443643  0.80458973  1
  C  C4  1  0.50000013  0.26113258  0.17953694  1
  C  C5  1  0.50000018  0.26106814  0.42979109  1
  C  C6  1  0.50000079  0.26106461  0.67980196  1
  C  C7  1  0.50000067  0.26105748  0.92945075  1
  C  C8  1  0.50000027  0.31757089  0.17961031  1
  C  C9  1  0.50000011  0.31750241  0.43008663  1
  C  C10  1  0.50000051  0.31752202  0.68006468  1
  C  C11  1  0.50000071  0.31748692  0.92946727  1
  C  C12  1  0.50000052  0.34508256  0.05443539  1
  C  C13  1  0.50000006  0.34504394  0.30507128  1
  C  C14  1  0.50000023  0.34510661  0.55520422  1
  C  C15  1  0.50000062  0.34527047  0.80481827  1
  C  C16  1  0.50000026  0.40100838  0.05439885  1
  C  C17  1  0.49999997  0.40089876  0.30565680  1
  C  C18  1  0.50000009  0.40105918  0.55582755  1
  C  C19  1  0.50000033  0.40140889  0.80496929  1
  C  C20  1  0.49999996  0.42809608  0.17983247  1
  C  C21  1  0.49999991  0.42857375  0.43126955  1
  C  C22  1  0.50000006  0.42921023  0.68050554  1
  C  C23  1  0.50000012  0.42928276  0.92959551  1
  C  C24  1  0.49999980  0.48366156  0.18002856  1
  C  C25  1  0.49999976  0.48448281  0.43209845  1
  C  C26  1  0.49999961  0.48535867  0.68071942  1
  C  C27  1  0.49999956  0.48525981  0.92944236  1
  C  C28  1  0.49999958  0.51196478  0.05608305  1
  C  C29  1  0.49999989  0.51043250  0.30557276  1
  C  C30  1  0.49999957  0.51339897  0.55630925  1
  C  C31  1  0.49999938  0.51364938  0.80461180  1
  C  C32  1  0.49999968  0.56775859  0.05827427  1
  C  C33  1  0.49999997  0.56562790  0.30545007  1
  C  C34  1  0.49999945  0.57015433  0.55547224  1
  C  C35  1  0.49999928  0.57045016  0.80405253  1
  C  C36  1  0.50000001  0.59304076  0.18264396  1
  C  C37  1  0.49999966  0.59298384  0.42784105  1
  C  C38  1  0.49999940  0.60045733  0.68161487  1
  C  C39  1  0.49999953  0.59644675  0.93204057  1
  C  C40  1  0.49999956  0.65811291  0.68998181  1
  C  C41  1  0.49999981  0.65069714  0.93634732  1
  C  C42  1  0.49999975  0.69474331  0.58195925  1
  C  C43  1  0.49999966  0.68218167  0.82297721  1
  C  C44  1  0.49999952  0.74920451  0.59996427  1
  C  C45  1  0.49999979  0.73943694  0.84359636  1
  C  C46  1  0.49999964  0.77175910  0.72602578  1
  C  C47  1  0.49999993  0.76361540  0.96856892  1
  H  H48  1  0.50000018  0.19176559  0.05453838  1
  H  H49  1  0.49999948  0.19177926  0.30436642  1
  H  H50  1  0.50000133  0.19164719  0.55434900  1
  H  H51  1  0.50000130  0.19164281  0.80438833  1
  H  H52  1  0.49999950  0.81421552  0.73871376  1
  H  H53  1  0.50000028  0.80636963  0.97279834  1
  H  H54  1  0.50000010  0.63556042  0.19011017  1
  H  H55  1  0.49999925  0.63452972  0.41478678  1
  H  H56  1  0.50000016  0.68390248  0.47657239  1
  H  H57  1  0.49999931  0.77399748  0.50958696  1
  H  H58  1  0.50000006  0.66974770  0.03448903  1
  H  H59  1  0.49999975  0.74329268  0.06579766  1
