# generated using pymatgen
data_H7C22
_symmetry_space_group_name_H-M   'P 1'
_cell_length_a   10.00000000
_cell_length_b   25.62946000
_cell_length_c   9.90017911
_cell_angle_alpha   90.00000000
_cell_angle_beta   90.00000000
_cell_angle_gamma   90.00000000
_symmetry_Int_Tables_number   1
_chemical_formula_structural   H7C22
_chemical_formula_sum   'H14 C44'
_cell_volume   2537.36244411
_cell_formula_units_Z   2
loop_
 _symmetry_equiv_pos_site_id
 _symmetry_equiv_pos_as_xyz
  1  'x, y, z'
loop_
 _atom_site_type_symbol
 _atom_site_label
 _atom_site_symmetry_multiplicity
 _atom_site_fract_x
 _atom_site_fract_y
 _atom_site_fract_z
 _atom_site_occupancy
  C  C0  1  0.49999711  0.23344284  0.07720379  1
  C  C1  1  0.49999817  0.23349696  0.32811854  1
  C  C2  1  0.49999761  0.23366611  0.57837691  1
  C  C3  1  0.49999628  0.23373081  0.82734506  1
  C  C4  1  0.49999844  0.25989678  0.20251374  1
  C  C5  1  0.49999854  0.26006123  0.45325642  1
  C  C6  1  0.49999777  0.26048346  0.70291567  1
  C  C7  1  0.49999761  0.26017565  0.95239414  1
  C  C8  1  0.49999987  0.31631931  0.20232437  1
  C  C9  1  0.49999964  0.31652096  0.45344966  1
  C  C10  1  0.49999965  0.31703287  0.70305188  1
  C  C11  1  0.49999978  0.31667628  0.95213257  1
  C  C12  1  0.50000061  0.34393677  0.07680714  1
  C  C13  1  0.50000042  0.34344420  0.32816968  1
  C  C14  1  0.50000033  0.34465370  0.57842585  1
  C  C15  1  0.50000066  0.34476153  0.82753858  1
  C  C16  1  0.50000152  0.40001186  0.07615732  1
  C  C17  1  0.50000130  0.39915716  0.32842418  1
  C  C18  1  0.50000121  0.40072719  0.57896298  1
  C  C19  1  0.50000178  0.40100498  0.82751850  1
  C  C20  1  0.50000153  0.42591997  0.20287706  1
  C  C21  1  0.50000143  0.42739305  0.45240387  1
  C  C22  1  0.50000155  0.42920498  0.70373622  1
  C  C23  1  0.50000192  0.42893705  0.95217449  1
  C  C24  1  0.50000037  0.48112442  0.20333212  1
  C  C25  1  0.50000143  0.48321085  0.45032815  1
  C  C26  1  0.50000159  0.48599694  0.70475855  1
  C  C27  1  0.50000081  0.48570813  0.95358296  1
  C  C28  1  0.49999804  0.50852022  0.08104937  1
  C  C29  1  0.50000069  0.50844981  0.32641956  1
  C  C30  1  0.50000132  0.51215396  0.57704704  1
  C  C31  1  0.50000166  0.51598169  0.82707342  1
  C  C32  1  0.50000053  0.56614682  0.57293087  1
  C  C33  1  0.50000251  0.57335858  0.81840599  1
  C  C34  1  0.50000074  0.59781886  0.68719040  1
  C  C35  1  0.50000553  0.61030717  0.92685497  1
  C  C36  1  0.49999997  0.65466241  0.66829828  1
  C  C37  1  0.50000333  0.66379671  0.91024954  1
  C  C38  1  0.49999908  0.67785166  0.53861448  1
  C  C39  1  0.50000032  0.68828086  0.78315555  1
  C  C40  1  0.49999853  0.73229323  0.52248238  1
  C  C41  1  0.49999960  0.74522667  0.76796181  1
  C  C42  1  0.49999880  0.76535476  0.63286149  1
  C  C43  1  0.49999998  0.77996270  0.87524833  1
  H  H44  1  0.49999599  0.19062150  0.07651415  1
  H  H45  1  0.49999787  0.19065971  0.32831313  1
  H  H46  1  0.49999704  0.19086150  0.57903692  1
  H  H47  1  0.49999480  0.19093314  0.82662069  1
  H  H48  1  0.49999840  0.80782487  0.61905627  1
  H  H49  1  0.49999958  0.82202584  0.85472599  1
  H  H50  1  0.49999199  0.55008464  0.09440788  1
  H  H51  1  0.50000047  0.55099693  0.31954731  1
  H  H52  1  0.49999982  0.58505136  0.47494367  1
  H  H53  1  0.49999895  0.65401377  0.44714513  1
  H  H54  1  0.49999791  0.74864295  0.42015071  1
  H  H55  1  0.50001179  0.59921538  0.03184593  1
  H  H56  1  0.50000497  0.68749226  0.00238007  1
  H  H57  1  0.50000087  0.76787327  -0.01881173  1
