# generated using pymatgen
data_HC2
_symmetry_space_group_name_H-M   'P 1'
_cell_length_a   10.00000000
_cell_length_b   25.62946000
_cell_length_c   9.92982970
_cell_angle_alpha   90.00000000
_cell_angle_beta   90.00000000
_cell_angle_gamma   90.00000000
_symmetry_Int_Tables_number   1
_chemical_formula_structural   HC2
_chemical_formula_sum   'H18 C36'
_cell_volume   2544.96173163
_cell_formula_units_Z   18
loop_
 _symmetry_equiv_pos_site_id
 _symmetry_equiv_pos_as_xyz
  1  'x, y, z'
loop_
 _atom_site_type_symbol
 _atom_site_label
 _atom_site_symmetry_multiplicity
 _atom_site_fract_x
 _atom_site_fract_y
 _atom_site_fract_z
 _atom_site_occupancy
  C  C0  1  0.49998938  0.22213692  0.64728313  1
  C  C1  1  0.49998898  0.23561206  0.88986604  1
  C  C2  1  0.49999222  0.25623096  0.75565453  1
  C  C3  1  0.49999268  0.26811642  1.00141836  1
  C  C4  1  0.49999853  0.31320533  0.74085375  1
  C  C5  1  0.49999896  0.32249551  0.98682264  1
  C  C6  1  0.50000160  0.33704727  0.61222420  1
  C  C7  1  0.50000129  0.34595422  0.85760771  1
  C  C8  1  0.50000594  0.39050126  0.59644070  1
  C  C9  1  0.50000535  0.40230588  0.84067278  1
  C  C10  1  0.50000699  0.42465967  0.70928322  1
  C  C11  1  0.50000593  0.43719984  0.95197949  1
  C  C12  1  0.50000754  0.48079073  0.69341854  1
  C  C13  1  0.50000720  0.49057122  0.93600898  1
  C  C14  1  0.50000132  0.50510465  0.56523752  1
  C  C15  1  0.50000788  0.51447184  0.80660555  1
  C  C16  1  0.49999614  0.55840153  0.54864246  1
  C  C17  1  0.50000660  0.57107819  0.78848151  1
  C  C18  1  0.50000219  0.59519109  0.65732274  1
  C  C19  1  0.50000735  0.60270921  0.90290264  1
  C  C20  1  0.50000508  0.66177375  0.14783645  1
  C  C21  1  0.50000951  0.66074953  0.39163650  1
  C  C22  1  0.50000199  0.65233734  0.64729363  1
  C  C23  1  0.50000307  0.65679728  0.89785119  1
  C  C24  1  0.50000195  0.68643452  0.02377452  1
  C  C25  1  0.50000403  0.68919687  0.27062729  1
  C  C26  1  0.50000245  0.68230843  0.52021219  1
  C  C27  1  0.50000085  0.68199545  0.76947621  1
  C  C28  1  0.49999833  0.74298765  0.02132817  1
  C  C29  1  0.49999820  0.74531205  0.27141463  1
  C  C30  1  0.49999728  0.73951562  0.52204180  1
  C  C31  1  0.49999799  0.73898683  0.77000856  1
  C  C32  1  0.49999637  0.77094643  0.14475974  1
  C  C33  1  0.49999641  0.76870051  0.40038043  1
  C  C34  1  0.49999586  0.76578011  0.64671976  1
  C  C35  1  0.49999682  0.76704211  0.89296385  1
  H  H36  1  0.49998377  0.17997013  0.66522774  1
  H  H37  1  0.49998430  0.19309912  0.90250931  1
  H  H38  1  0.49999341  0.81374598  0.14161183  1
  H  H39  1  0.49999469  0.81140597  0.40878399  1
  H  H40  1  0.49999363  0.80860040  0.64711921  1
  H  H41  1  0.49999503  0.80981416  0.88665172  1
  H  H42  1  0.49999341  0.23502065  0.54233819  1
  H  H43  1  0.50000002  0.31249367  0.52206251  1
  H  H44  1  0.50000811  0.40653593  0.49443148  1
  H  H45  1  0.49999706  0.48134602  0.47381403  1
  H  H46  1  0.49998232  0.57015703  0.44428292  1
  H  H47  1  0.50000733  0.61920063  0.15526422  1
  H  H48  1  0.50002294  0.61918657  0.37565288  1
  H  H49  1  0.49999066  0.25117532  0.10277082  1
  H  H50  1  0.50000203  0.34677071  0.07735488  1
  H  H51  1  0.50000427  0.42184487  0.05474092  1
  H  H52  1  0.50000613  0.51425026  0.02750693  1
  H  H53  1  0.50001062  0.58389072  0.00082502  1
