# generated using pymatgen
data_HC4
_symmetry_space_group_name_H-M   'P 1'
_cell_length_a   10.00000000
_cell_length_b   29.89204000
_cell_length_c   9.88909334
_cell_angle_alpha   90.00000000
_cell_angle_beta   90.00000000
_cell_angle_gamma   90.00000000
_symmetry_Int_Tables_number   1
_chemical_formula_structural   HC4
_chemical_formula_sum   'H16 C64'
_cell_volume   2956.05173700
_cell_formula_units_Z   16
loop_
 _symmetry_equiv_pos_site_id
 _symmetry_equiv_pos_as_xyz
  1  'x, y, z'
loop_
 _atom_site_type_symbol
 _atom_site_label
 _atom_site_symmetry_multiplicity
 _atom_site_fract_x
 _atom_site_fract_y
 _atom_site_fract_z
 _atom_site_occupancy
  C  C0  1  0.49999794  0.83370930  0.48985772  1
  C  C1  1  0.50000103  0.84008393  0.73503550  1
  C  C2  1  0.49999998  0.16447751  0.08170742  1
  C  C3  1  0.49999999  0.16450302  0.33179941  1
  C  C4  1  0.49999998  0.16447588  0.58173742  1
  C  C5  1  0.49999997  0.16443211  0.83172664  1
  C  C6  1  0.49999998  0.18728150  0.20672605  1
  C  C7  1  0.49999998  0.18729832  0.45672507  1
  C  C8  1  0.49999997  0.18722490  0.70672332  1
  C  C9  1  0.49999997  0.18725437  0.95667667  1
  C  C10  1  0.49999997  0.23568381  0.20659675  1
  C  C11  1  0.49999996  0.23571234  0.45664692  1
  C  C12  1  0.49999996  0.23562620  0.70662689  1
  C  C13  1  0.49999998  0.23564434  0.95653098  1
  C  C14  1  0.49999999  0.25931553  0.08142980  1
  C  C15  1  0.49999998  0.25938447  0.33167135  1
  C  C16  1  0.49999996  0.25935383  0.58178635  1
  C  C17  1  0.49999998  0.25933169  0.83145406  1
  C  C18  1  0.50000003  0.30727317  0.08122335  1
  C  C19  1  0.50000003  0.30734744  0.33168947  1
  C  C20  1  0.50000000  0.30729433  0.58195513  1
  C  C21  1  0.50000002  0.30729476  0.83139173  1
  C  C22  1  0.50000007  0.33098842  0.20624131  1
  C  C23  1  0.50000005  0.33102330  0.45692351  1
  C  C24  1  0.50000004  0.33118472  0.70672822  1
  C  C25  1  0.50000007  0.33105882  0.95626103  1
  C  C26  1  0.50000019  0.37875655  0.20585967  1
  C  C27  1  0.50000015  0.37884595  0.45718329  1
  C  C28  1  0.50000010  0.37919046  0.70678879  1
  C  C29  1  0.50000018  0.37895041  0.95582593  1
  C  C30  1  0.50000023  0.40255188  0.08033575  1
  C  C31  1  0.50000029  0.40205279  0.33178612  1
  C  C32  1  0.50000013  0.40309377  0.58218195  1
  C  C33  1  0.50000023  0.40315307  0.83125007  1
  C  C34  1  0.50000028  0.45044837  0.07970711  1
  C  C35  1  0.50000034  0.44964036  0.33189674  1
  C  C36  1  0.50000011  0.45101701  0.58248515  1
  C  C37  1  0.50000033  0.45124594  0.83114526  1
  C  C38  1  0.50000020  0.47267432  0.20639727  1
  C  C39  1  0.50000014  0.47389039  0.45582659  1
  C  C40  1  0.50000007  0.47542955  0.70726409  1
  C  C41  1  0.50000035  0.47532356  0.95568540  1
  C  C42  1  0.49999900  0.51995175  0.20665469  1
  C  C43  1  0.49999983  0.52161067  0.45337746  1
  C  C44  1  0.50000002  0.52405385  0.70798357  1
  C  C45  1  0.49999955  0.52396222  0.95697960  1
  C  C46  1  0.49999749  0.54358076  0.08450638  1
  C  C47  1  0.49999906  0.54338496  0.32969101  1
  C  C48  1  0.49999990  0.54637734  0.58000088  1
  C  C49  1  0.50000019  0.54989160  0.83020944  1
  C  C50  1  0.49999947  0.59258252  0.57512620  1
  C  C51  1  0.50000095  0.59896972  0.82086836  1
  C  C52  1  0.49999960  0.61985315  0.68944682  1
  C  C53  1  0.50000356  0.63092980  0.92941086  1
  C  C54  1  0.49999908  0.66828689  0.66961817  1
  C  C55  1  0.50000256  0.67655581  0.91149418  1
  C  C56  1  0.49999738  0.68848490  0.53928364  1
  C  C57  1  0.50000023  0.69728192  0.78280664  1
  C  C58  1  0.49999736  0.73436906  0.52259246  1
  C  C59  1  0.50000029  0.74551761  0.76659008  1
  C  C60  1  0.49999894  0.76423224  0.63347077  1
  C  C61  1  0.50000208  0.77460086  0.87954000  1
  C  C62  1  0.49999923  0.81299628  0.61528968  1
  C  C63  1  0.50000244  0.82113566  0.86292280  1
  H  H64  1  0.49999816  0.87032893  0.48374979  1
  H  H65  1  0.50000126  0.87657374  0.72312923  1
  H  H66  1  0.49999998  0.12777770  0.08182204  1
  H  H67  1  0.49999998  0.12780852  0.33191413  1
  H  H68  1  0.49999999  0.12777946  0.58193997  1
  H  H69  1  0.49999999  0.12772818  0.83211181  1
  H  H70  1  0.49999671  0.81537038  0.39417072  1
  H  H71  1  0.49999356  0.57923249  0.09841695  1
  H  H72  1  0.49999878  0.57985561  0.32301299  1
  H  H73  1  0.49999939  0.60870893  0.47694315  1
  H  H74  1  0.49999588  0.66802007  0.44781126  1
  H  H75  1  0.49999614  0.74758337  0.41934803  1
  H  H76  1  0.50000810  0.62169475  0.03489263  1
  H  H77  1  0.50000436  0.69722206  0.00271675  1
  H  H78  1  0.50000340  0.76093369  -0.01801887  1
  H  H79  1  0.50000389  0.84266347  -0.04731552  1
