# generated using pymatgen
data_HC2
_symmetry_space_group_name_H-M   'P 1'
_cell_length_a   10.00000000
_cell_length_b   29.89204000
_cell_length_c   9.91102749
_cell_angle_alpha   90.00000000
_cell_angle_beta   90.00000000
_cell_angle_gamma   90.00000000
_symmetry_Int_Tables_number   1
_chemical_formula_structural   HC2
_chemical_formula_sum   'H22 C44'
_cell_volume   2962.60830143
_cell_formula_units_Z   22
loop_
 _symmetry_equiv_pos_site_id
 _symmetry_equiv_pos_as_xyz
  1  'x, y, z'
loop_
 _atom_site_type_symbol
 _atom_site_label
 _atom_site_symmetry_multiplicity
 _atom_site_fract_x
 _atom_site_fract_y
 _atom_site_fract_z
 _atom_site_occupancy
  C  C0  1  0.50000926  0.19605141  0.09739220  1
  C  C1  1  0.50000796  0.19453116  0.35361705  1
  C  C2  1  0.50000318  0.19817069  0.60454838  1
  C  C3  1  0.50001040  0.19906585  0.85027102  1
  C  C4  1  0.50000293  0.21618690  0.22639897  1
  C  C5  1  0.50000151  0.21890458  0.47648887  1
  C  C6  1  0.50000216  0.22228705  0.72726729  1
  C  C7  1  0.50000857  0.22119645  0.97566273  1
  C  C8  1  0.49997366  0.26425319  0.22703792  1
  C  C9  1  0.49999246  0.26747962  0.47382964  1
  C  C10  1  0.49999967  0.27114937  0.72758256  1
  C  C11  1  0.49998715  0.27028621  0.97736720  1
  C  C12  1  0.49994192  0.28861928  0.10617130  1
  C  C13  1  0.49997303  0.28823588  0.34913607  1
  C  C14  1  0.49999628  0.29317848  0.59944964  1
  C  C15  1  0.50000037  0.29622735  0.85037404  1
  C  C16  1  0.49999002  0.33973264  0.59501300  1
  C  C17  1  0.50001546  0.34522635  0.84110929  1
  C  C18  1  0.49999628  0.36667785  0.71048661  1
  C  C19  1  0.50006005  0.37589895  0.95175760  1
  C  C20  1  0.49999344  0.41553943  0.69582243  1
  C  C21  1  0.50003255  0.42154351  0.93867312  1
  C  C22  1  0.49999432  0.43790677  0.56865499  1
  C  C23  1  0.49999486  0.44325616  0.81189558  1
  C  C24  1  0.49999579  0.48398911  0.55817056  1
  C  C25  1  0.49999176  0.49137215  0.80193702  1
  C  C26  1  0.49999443  0.51257307  0.67334886  1
  C  C27  1  0.49999248  0.51855782  0.91968070  1
  C  C28  1  0.49999729  0.56108435  0.66504251  1
  C  C29  1  0.49999616  0.56433796  0.91190424  1
  C  C30  1  0.49999902  0.58469633  0.54009904  1
  C  C31  1  0.49999818  0.58702915  0.78578664  1
  C  C32  1  0.50000030  0.63078409  0.53470532  1
  C  C33  1  0.49999984  0.63536956  0.78021540  1
  C  C34  1  0.50000030  0.65774095  0.65326634  1
  C  C35  1  0.50000020  0.66175107  0.89965354  1
  C  C36  1  0.50000046  0.70644233  0.64817514  1
  C  C37  1  0.50000047  0.70776151  0.89495447  1
  C  C38  1  0.50000035  0.73019327  0.52440809  1
  C  C39  1  0.50000044  0.73143112  0.77150859  1
  C  C40  1  0.50000023  0.77709827  0.52166353  1
  C  C41  1  0.50000034  0.78047385  0.76935060  1
  C  C42  1  0.50000024  0.80180509  0.63999700  1
  C  C43  1  0.50000031  0.80639575  0.88539428  1
  H  H44  1  0.50001294  0.15940045  0.08943443  1
  H  H45  1  0.50001479  0.15784715  0.35796265  1
  H  H46  1  0.50000633  0.16148544  0.61031488  1
  H  H47  1  0.50001379  0.16236802  0.84793426  1
  H  H48  1  0.50000013  0.83846802  0.63665514  1
  H  H49  1  0.50000023  0.84295187  0.87780963  1
  H  H50  1  0.49985995  0.32410504  0.12413355  1
  H  H51  1  0.49996350  0.32472545  0.34044217  1
  H  H52  1  0.49998384  0.35617553  0.49713146  1
  H  H53  1  0.49999699  0.41869853  0.47472582  1
  H  H54  1  0.49999889  0.49852023  0.45683631  1
  H  H55  1  0.49999901  0.56608420  0.44499679  1
  H  H56  1  0.50000108  0.64676810  0.43538958  1
  H  H57  1  0.50000024  0.71221599  0.42833461  1
  H  H58  1  0.50000010  0.79448399  0.42420803  1
  H  H59  1  0.50014586  0.36509824  0.05537315  1
  H  H60  1  0.50005892  0.44115793  0.03169082  1
  H  H61  1  0.49998930  0.50310710  0.01954084  1
  H  H62  1  0.49999714  0.58333662  0.00611202  1
  H  H63  1  0.50000005  0.64563563  -0.00147303  1
  H  H64  1  0.50000048  0.72628445  -0.00987583  1
  H  H65  1  0.50000038  0.79220177  -0.01294668  1
