# generated using pymatgen
data_HC4
_symmetry_space_group_name_H-M   'P 1'
_cell_length_a   10.00000000
_cell_length_b   29.89204000
_cell_length_c   9.90194676
_cell_angle_alpha   90.00000000
_cell_angle_beta   90.00000000
_cell_angle_gamma   90.00000000
_symmetry_Int_Tables_number   1
_chemical_formula_structural   HC4
_chemical_formula_sum   'H16 C64'
_cell_volume   2959.89388507
_cell_formula_units_Z   16
loop_
 _symmetry_equiv_pos_site_id
 _symmetry_equiv_pos_as_xyz
  1  'x, y, z'
loop_
 _atom_site_type_symbol
 _atom_site_label
 _atom_site_symmetry_multiplicity
 _atom_site_fract_x
 _atom_site_fract_y
 _atom_site_fract_z
 _atom_site_occupancy
  C  C0  1  0.50000023  0.84822716  0.62701310  1
  C  C1  1  0.50000011  0.83578734  0.86959412  1
  C  C2  1  0.49999986  0.15156647  0.58062205  1
  C  C3  1  0.50000005  0.16465587  0.81298669  1
  C  C4  1  0.49999997  0.18442652  0.67992434  1
  C  C5  1  0.50000005  0.18883359  0.92897626  1
  C  C6  1  0.50000005  0.23883090  0.17643982  1
  C  C7  1  0.50000008  0.23869041  0.42268450  1
  C  C8  1  0.49999999  0.23396681  0.67421429  1
  C  C9  1  0.50000002  0.23628710  0.92649638  1
  C  C10  1  0.50000002  0.26071439  0.05155743  1
  C  C11  1  0.50000005  0.26206603  0.29970489  1
  C  C12  1  0.50000002  0.25933890  0.54932975  1
  C  C13  1  0.50000000  0.25872706  0.79864628  1
  C  C14  1  0.50000000  0.30869911  0.04993401  1
  C  C15  1  0.50000000  0.30965078  0.29974671  1
  C  C16  1  0.49999999  0.30780748  0.55023407  1
  C  C17  1  0.50000000  0.30732240  0.79903405  1
  C  C18  1  0.49999999  0.33275215  0.17424284  1
  C  C19  1  0.49999999  0.33228812  0.42575872  1
  C  C20  1  0.49999999  0.33154490  0.67500733  1
  C  C21  1  0.50000000  0.33167384  0.92372097  1
  C  C22  1  0.49999998  0.38042534  0.17431135  1
  C  C23  1  0.49999997  0.38012076  0.42561845  1
  C  C24  1  0.49999997  0.37964606  0.67502382  1
  C  C25  1  0.49999999  0.37964315  0.92379920  1
  C  C26  1  0.49999997  0.40372911  0.04875519  1
  C  C27  1  0.49999996  0.40378555  0.30013554  1
  C  C28  1  0.49999996  0.40373388  0.55040908  1
  C  C29  1  0.49999998  0.40366275  0.79926272  1
  C  C30  1  0.49999994  0.45152885  0.04846279  1
  C  C31  1  0.49999992  0.45148747  0.29993955  1
  C  C32  1  0.49999992  0.45159141  0.55014046  1
  C  C33  1  0.49999994  0.45173239  0.79892559  1
  C  C34  1  0.49999989  0.47472001  0.17390081  1
  C  C35  1  0.49999990  0.47519042  0.42537728  1
  C  C36  1  0.49999990  0.47577737  0.67452771  1
  C  C37  1  0.49999993  0.47571264  0.92337363  1
  C  C38  1  0.49999988  0.52230073  0.17348866  1
  C  C39  1  0.49999990  0.52304917  0.42578787  1
  C  C40  1  0.49999986  0.52387160  0.67441626  1
  C  C41  1  0.49999994  0.52364094  0.92285910  1
  C  C42  1  0.49999995  0.54653713  0.04941695  1
  C  C43  1  0.49999994  0.54525923  0.29899968  1
  C  C44  1  0.49999987  0.54787952  0.54977203  1
  C  C45  1  0.49999994  0.54807832  0.79805013  1
  C  C46  1  0.50000008  0.59432554  0.05156022  1
  C  C47  1  0.50000040  0.59251031  0.29847249  1
  C  C48  1  0.50000021  0.59643243  0.54817128  1
  C  C49  1  0.49999996  0.59661207  0.79698948  1
  C  C50  1  0.50000039  0.61600200  0.17550251  1
  C  C51  1  0.50000098  0.61601145  0.42066894  1
  C  C52  1  0.49999996  0.62232845  0.67463664  1
  C  C53  1  0.50000001  0.61904903  0.92473672  1
  C  C54  1  0.49999972  0.67142893  0.68333293  1
  C  C55  1  0.50000015  0.66526998  0.92889408  1
  C  C56  1  0.49999900  0.70309984  0.57469745  1
  C  C57  1  0.50000006  0.69237766  0.81458184  1
  C  C58  1  0.49999954  0.74892822  0.59183560  1
  C  C59  1  0.50000011  0.74102568  0.83385943  1
  C  C60  1  0.50000016  0.76978481  0.71914326  1
  C  C61  1  0.50000001  0.76079999  0.96374975  1
  C  C62  1  0.50000021  0.81854010  0.73447624  1
  C  C63  1  0.50000001  0.80744486  0.98004414  1
  H  H64  1  0.50000017  0.88425121  0.64759852  1
  H  H65  1  0.50000006  0.87218432  0.88347251  1
  H  H66  1  0.49999991  0.11675265  0.61582179  1
  H  H67  1  0.50000007  0.12803469  0.81864642  1
  H  H68  1  0.50000029  0.83794235  0.52099162  1
  H  H69  1  0.49999966  0.15469926  0.47145186  1
  H  H70  1  0.50000007  0.20235630  0.18275979  1
  H  H71  1  0.50000021  0.20271385  0.41416555  1
  H  H72  1  0.50000051  0.65246438  0.18304536  1
  H  H73  1  0.50000250  0.65163032  0.40709891  1
  H  H74  1  0.49999742  0.69372354  0.46952486  1
  H  H75  1  0.49999918  0.76952329  0.50037350  1
  H  H76  1  0.50000008  0.17088446  0.02487478  1
  H  H77  1  0.50000027  0.68145981  0.02688890  1
  H  H78  1  0.49999989  0.74021140  0.05491198  1
  H  H79  1  0.49999989  0.82144234  0.08239822  1
