# generated using pymatgen
data_HC2
_symmetry_space_group_name_H-M   'P 1'
_cell_length_a   10.00000000
_cell_length_b   29.89204000
_cell_length_c   9.99097922
_cell_angle_alpha   90.00000000
_cell_angle_beta   90.00000000
_cell_angle_gamma   90.00000000
_symmetry_Int_Tables_number   1
_chemical_formula_structural   HC2
_chemical_formula_sum   'H22 C44'
_cell_volume   2986.50750506
_cell_formula_units_Z   22
loop_
 _symmetry_equiv_pos_site_id
 _symmetry_equiv_pos_as_xyz
  1  'x, y, z'
loop_
 _atom_site_type_symbol
 _atom_site_label
 _atom_site_symmetry_multiplicity
 _atom_site_fract_x
 _atom_site_fract_y
 _atom_site_fract_z
 _atom_site_occupancy
  C  C0  1  0.49999922  0.18610949  0.62115302  1
  C  C1  1  0.50000094  0.20048079  0.86060325  1
  C  C2  1  0.50000020  0.21660697  0.72549906  1
  C  C3  1  0.50000139  0.22970779  0.96792300  1
  C  C4  1  0.50000021  0.26521671  0.70648943  1
  C  C5  1  0.50000115  0.27614461  0.94807645  1
  C  C6  1  0.49999855  0.28521353  0.57903681  1
  C  C7  1  0.50000059  0.29481016  0.81783342  1
  C  C8  1  0.49999754  0.33093312  0.55845169  1
  C  C9  1  0.50000028  0.34316084  0.79463521  1
  C  C10  1  0.49999938  0.36349601  0.66391168  1
  C  C11  1  0.50000039  0.37079025  0.90632898  1
  C  C12  1  0.50000103  0.41718231  0.15273577  1
  C  C13  1  0.50000220  0.41783929  0.40154999  1
  C  C14  1  0.49999993  0.41285422  0.65388375  1
  C  C15  1  0.50000000  0.41691230  0.90184846  1
  C  C16  1  0.50000015  0.44014240  0.03091345  1
  C  C17  1  0.50000097  0.43964341  0.27670288  1
  C  C18  1  0.50000051  0.43853984  0.52748351  1
  C  C19  1  0.49999983  0.43919619  0.77407952  1
  C  C20  1  0.49999966  0.48799138  0.03098573  1
  C  C21  1  0.49999936  0.48699362  0.27666503  1
  C  C22  1  0.49999943  0.48777793  0.52730382  1
  C  C23  1  0.49999978  0.48837845  0.77401734  1
  C  C24  1  0.49999910  0.51029400  0.15369034  1
  C  C25  1  0.49999860  0.50838156  0.40156369  1
  C  C26  1  0.49999965  0.51404255  0.65278866  1
  C  C27  1  0.49999973  0.51129019  0.90142920  1
  C  C28  1  0.50000003  0.56334296  0.66055336  1
  C  C29  1  0.49999973  0.55756543  0.90400302  1
  C  C30  1  0.50000083  0.59502190  0.55243322  1
  C  C31  1  0.49999991  0.58462061  0.79001411  1
  C  C32  1  0.50000016  0.64064763  0.56790711  1
  C  C33  1  0.50000014  0.63329688  0.80739153  1
  C  C34  1  0.49999962  0.66189566  0.69406395  1
  C  C35  1  0.50000096  0.65433865  0.93524484  1
  C  C36  1  0.49999934  0.71020089  0.70679533  1
  C  C37  1  0.50000108  0.70040056  0.94873034  1
  C  C38  1  0.49999822  0.73854589  0.59307883  1
  C  C39  1  0.50000032  0.72966222  0.83742348  1
  C  C40  1  0.49999814  0.78516976  0.60687826  1
  C  C41  1  0.50000044  0.77852339  0.85248571  1
  C  C42  1  0.49999929  0.80487129  0.73242433  1
  C  C43  1  0.50000169  0.80006730  0.97530184  1
  H  H44  1  0.49999912  0.15023436  0.64377781  1
  H  H45  1  0.50000096  0.16423903  0.87723005  1
  H  H46  1  0.49999937  0.84141876  0.74212104  1
  H  H47  1  0.50000167  0.83671908  0.97903719  1
  H  H48  1  0.49999830  0.19580904  0.51562102  1
  H  H49  1  0.49999749  0.26386477  0.49000027  1
  H  H50  1  0.49999401  0.33936337  0.45337976  1
  H  H51  1  0.50000143  0.38064879  0.15686261  1
  H  H52  1  0.50000553  0.38199930  0.39337589  1
  H  H53  1  0.49999866  0.54683841  0.15914762  1
  H  H54  1  0.49999687  0.54408339  0.39347046  1
  H  H55  1  0.50000250  0.58591216  0.44810932  1
  H  H56  1  0.50000064  0.66076696  0.47650719  1
  H  H57  1  0.49999728  0.72435177  0.49225220  1
  H  H58  1  0.49999719  0.80618765  0.51688462  1
  H  H59  1  0.50000185  0.21660657  0.07040437  1
  H  H60  1  0.50000129  0.29739961  0.03691506  1
  H  H61  1  0.50000061  0.35495511  0.00377294  1
  H  H62  1  0.49999966  0.57393371  0.00105521  1
  H  H63  1  0.50000159  0.63442117  0.02697405  1
  H  H64  1  0.50000166  0.71447212  0.04986429  1
  H  H65  1  0.50000265  0.78227565  0.07092465  1
