# generated using pymatgen
data_HC6
_symmetry_space_group_name_H-M   'P 1'
_cell_length_a   10.00000000
_cell_length_b   29.89204000
_cell_length_c   9.88350962
_cell_angle_alpha   90.00000000
_cell_angle_beta   90.00000000
_cell_angle_gamma   90.00000000
_symmetry_Int_Tables_number   1
_chemical_formula_structural   HC6
_chemical_formula_sum   'H12 C72'
_cell_volume   2954.38264755
_cell_formula_units_Z   12
loop_
 _symmetry_equiv_pos_site_id
 _symmetry_equiv_pos_as_xyz
  1  'x, y, z'
loop_
 _atom_site_type_symbol
 _atom_site_label
 _atom_site_symmetry_multiplicity
 _atom_site_fract_x
 _atom_site_fract_y
 _atom_site_fract_z
 _atom_site_occupancy
  C  C0  1  0.49999960  0.83350930  0.52956879  1
  C  C1  1  0.50000041  0.84120713  0.77275940  1
  C  C2  1  0.50000001  0.16528916  0.06718517  1
  C  C3  1  0.50000000  0.16529113  0.31717222  1
  C  C4  1  0.50000000  0.16527853  0.56718511  1
  C  C5  1  0.50000000  0.16528270  0.81718772  1
  C  C6  1  0.50000001  0.18809543  0.19217910  1
  C  C7  1  0.50000000  0.18808747  0.44216840  1
  C  C8  1  0.50000000  0.18808405  0.69219680  1
  C  C9  1  0.50000000  0.18808603  0.94220508  1
  C  C10  1  0.50000000  0.23647199  0.19220427  1
  C  C11  1  0.50000000  0.23647740  0.44217436  1
  C  C12  1  0.50000000  0.23647216  0.69221370  1
  C  C13  1  0.50000000  0.23646381  0.94222093  1
  C  C14  1  0.50000000  0.26015980  0.06722147  1
  C  C15  1  0.50000000  0.26018564  0.31719282  1
  C  C16  1  0.50000000  0.26017558  0.56720891  1
  C  C17  1  0.50000000  0.26016090  0.81722364  1
  C  C18  1  0.50000000  0.30809819  0.06728611  1
  C  C19  1  0.50000000  0.30813391  0.31723339  1
  C  C20  1  0.50000000  0.30811236  0.56721566  1
  C  C21  1  0.50000000  0.30808697  0.81723531  1
  C  C22  1  0.50000000  0.33191431  0.19225450  1
  C  C23  1  0.50000000  0.33191878  0.44223275  1
  C  C24  1  0.50000000  0.33187481  0.69226928  1
  C  C25  1  0.50000000  0.33185649  0.94228759  1
  C  C26  1  0.50000000  0.37976139  0.19231707  1
  C  C27  1  0.50000000  0.37976743  0.44235435  1
  C  C28  1  0.50000000  0.37971526  0.69239698  1
  C  C29  1  0.50000000  0.37969709  0.94233710  1
  C  C30  1  0.50000000  0.40352838  0.06724960  1
  C  C31  1  0.50000000  0.40357507  0.31740835  1
  C  C32  1  0.50000000  0.40354921  0.56751332  1
  C  C33  1  0.50000000  0.40351965  0.81733377  1
  C  C34  1  0.50000000  0.45134127  0.06718835  1
  C  C35  1  0.50000000  0.45138429  0.31754205  1
  C  C36  1  0.50000000  0.45134341  0.56776538  1
  C  C37  1  0.50000000  0.45135055  0.81732143  1
  C  C38  1  0.50000000  0.47509201  0.19228155  1
  C  C39  1  0.50000000  0.47510530  0.44287041  1
  C  C40  1  0.50000000  0.47527808  0.69262629  1
  C  C41  1  0.50000000  0.47517560  0.94220183  1
  C  C42  1  0.49999999  0.52282930  0.19221980  1
  C  C43  1  0.49999999  0.52287624  0.44350184  1
  C  C44  1  0.49999999  0.52322110  0.69303194  1
  C  C45  1  0.49999999  0.52302092  0.94201738  1
  C  C46  1  0.49999999  0.54664375  0.06674885  1
  C  C47  1  0.49999999  0.54616634  0.31824263  1
  C  C48  1  0.49999999  0.54712555  0.56847557  1
  C  C49  1  0.49999999  0.54725866  0.81753865  1
  C  C50  1  0.49999999  0.59451811  0.06640927  1
  C  C51  1  0.50000000  0.59372580  0.31861486  1
  C  C52  1  0.50000000  0.59506789  0.56907125  1
  C  C53  1  0.49999998  0.59536208  0.81776888  1
  C  C54  1  0.50000000  0.61677291  0.19318191  1
  C  C55  1  0.50000001  0.61795609  0.44266800  1
  C  C56  1  0.49999999  0.61964158  0.69391225  1
  C  C57  1  0.49999998  0.61944507  0.94230485  1
  C  C58  1  0.50000003  0.66408839  0.19353443  1
  C  C59  1  0.50000006  0.66576366  0.44076171  1
  C  C60  1  0.49999998  0.66829944  0.69481370  1
  C  C61  1  0.49999996  0.66809591  0.94352683  1
  C  C62  1  0.50000002  0.68771969  0.07128316  1
  C  C63  1  0.50000010  0.68749400  0.31657699  1
  C  C64  1  0.50000003  0.69059412  0.56686331  1
  C  C65  1  0.49999992  0.69411508  0.81738138  1
  C  C66  1  0.50000006  0.73709896  0.56250464  1
  C  C67  1  0.49999994  0.74357258  0.80908906  1
  C  C68  1  0.49999999  0.76413514  0.67606818  1
  C  C69  1  0.49999996  0.77508512  0.91711652  1
  C  C70  1  0.50000000  0.81329721  0.65528115  1
  C  C71  1  0.50000030  0.82179407  0.89878371  1
  H  H72  1  0.49999962  0.87009062  0.52272738  1
  H  H73  1  0.50000054  0.87767580  0.76068409  1
  H  H74  1  0.50000001  0.12860902  0.06721514  1
  H  H75  1  0.50000000  0.12860423  0.31717825  1
  H  H76  1  0.50000000  0.12858430  0.56710973  1
  H  H77  1  0.50000000  0.12859603  0.81719407  1
  H  H78  1  0.49999912  0.81538377  0.43357261  1
  H  H79  1  0.50000008  0.72338163  0.08412351  1
  H  H80  1  0.50000019  0.72395002  0.30984036  1
  H  H81  1  0.50000013  0.75357690  0.46455889  1
  H  H82  1  0.49999966  0.76593353  0.02270334  1
  H  H83  1  0.50000037  0.84287969  -0.01039039  1
