# generated using pymatgen
data_H9C26
_symmetry_space_group_name_H-M   'P 1'
_cell_length_a   10.00000000
_cell_length_b   29.89204000
_cell_length_c   9.89924644
_cell_angle_alpha   90.00000000
_cell_angle_beta   90.00000000
_cell_angle_gamma   90.00000000
_symmetry_Int_Tables_number   1
_chemical_formula_structural   H9C26
_chemical_formula_sum   'H18 C52'
_cell_volume   2959.08670481
_cell_formula_units_Z   2
loop_
 _symmetry_equiv_pos_site_id
 _symmetry_equiv_pos_as_xyz
  1  'x, y, z'
loop_
 _atom_site_type_symbol
 _atom_site_label
 _atom_site_symmetry_multiplicity
 _atom_site_fract_x
 _atom_site_fract_y
 _atom_site_fract_z
 _atom_site_occupancy
  C  C0  1  0.49999951  0.18917435  0.66026384  1
  C  C1  1  0.50000030  0.20146790  0.90306305  1
  C  C2  1  0.49999990  0.21881330  0.76803127  1
  C  C3  1  0.50000069  0.22953562  1.01448247  1
  C  C4  1  0.49999993  0.26764439  0.75220016  1
  C  C5  1  0.50000071  0.27612253  0.99888330  1
  C  C6  1  0.49999960  0.28786249  0.62281521  1
  C  C7  1  0.50000034  0.29597526  0.86884655  1
  C  C8  1  0.49999973  0.33366489  0.60632459  1
  C  C9  1  0.50000044  0.34422635  0.85109703  1
  C  C10  1  0.50000017  0.36316157  0.71898913  1
  C  C11  1  0.50000072  0.37425983  0.96254121  1
  C  C12  1  0.50000008  0.41120020  0.70246128  1
  C  C13  1  0.50000075  0.41999535  0.94596660  1
  C  C14  1  0.49999826  0.43190358  0.57376730  1
  C  C15  1  0.50000047  0.44014989  0.81548379  1
  C  C16  1  0.49999717  0.47748870  0.55606821  1
  C  C17  1  0.50000029  0.48854623  0.79575040  1
  C  C18  1  0.49999921  0.50940725  0.66453161  1
  C  C19  1  0.50000073  0.51580711  0.90994922  1
  C  C20  1  0.50000076  0.56488470  0.15603801  1
  C  C21  1  0.50000205  0.56472977  0.40139261  1
  C  C22  1  0.49999984  0.55846436  0.65541246  1
  C  C23  1  0.50000019  0.56196319  0.90537508  1
  C  C24  1  0.50000023  0.58662182  0.03234489  1
  C  C25  1  0.50000081  0.58826700  0.27914321  1
  C  C26  1  0.50000037  0.58437039  0.52874142  1
  C  C27  1  0.49999994  0.58429296  0.77753941  1
  C  C28  1  0.49999998  0.63441186  0.03031470  1
  C  C29  1  0.49999985  0.63558941  0.27961525  1
  C  C30  1  0.49999967  0.63302370  0.53022427  1
  C  C31  1  0.49999990  0.63293327  0.77877054  1
  C  C32  1  0.49999978  0.65861716  0.15420481  1
  C  C33  1  0.49999975  0.65780131  0.40631518  1
  C  C34  1  0.49999967  0.65700349  0.65490841  1
  C  C35  1  0.49999994  0.65720637  0.90364868  1
  C  C36  1  0.49999979  0.70637226  0.15443250  1
  C  C37  1  0.49999980  0.70587416  0.40572214  1
  C  C38  1  0.49999977  0.70520277  0.65488688  1
  C  C39  1  0.49999989  0.70522534  0.90412170  1
  C  C40  1  0.49999990  0.72940044  0.02914225  1
  C  C41  1  0.49999985  0.72959705  0.28028753  1
  C  C42  1  0.49999982  0.72927847  0.53027959  1
  C  C43  1  0.49999989  0.72890549  0.77948090  1
  C  C44  1  0.49999998  0.77778143  0.02935239  1
  C  C45  1  0.49999995  0.77793857  0.28009442  1
  C  C46  1  0.49999994  0.77768981  0.53003082  1
  C  C47  1  0.49999998  0.77739432  0.77958824  1
  C  C48  1  0.49999999  0.80054325  0.15447400  1
  C  C49  1  0.50000000  0.80060941  0.40534056  1
  C  C50  1  0.49999999  0.80034096  0.65512207  1
  C  C51  1  0.50000002  0.80038068  0.90413133  1
  H  H52  1  0.49999942  0.15307177  0.67970948  1
  H  H53  1  0.50000031  0.16504958  0.91647934  1
  H  H54  1  0.50000004  0.83725075  0.15387399  1
  H  H55  1  0.50000009  0.83729825  0.40597866  1
  H  H56  1  0.50000004  0.83703548  0.65582947  1
  H  H57  1  0.50000006  0.83706854  0.90323244  1
  H  H58  1  0.49999930  0.19977730  0.55454050  1
  H  H59  1  0.49999915  0.26671497  0.53250398  1
  H  H60  1  0.49999949  0.34731430  0.50382956  1
  H  H61  1  0.49999699  0.41139223  0.48238691  1
  H  H62  1  0.49999338  0.48672535  0.45070137  1
  H  H63  1  0.50000085  0.52843175  0.16319224  1
  H  H64  1  0.50000532  0.52906451  0.38846158  1
  H  H65  1  0.50000106  0.21524505  0.11650092  1
  H  H66  1  0.50000108  0.29704032  0.08949444  1
  H  H67  1  0.50000086  0.36123419  0.06577003  1
  H  H68  1  0.50000089  0.44046336  0.03749917  1
  H  H69  1  0.50000135  0.49968784  0.00802348  1
