# generated using pymatgen
data_HC2
_symmetry_space_group_name_H-M   'P 1'
_cell_length_a   10.00000000
_cell_length_b   21.36688000
_cell_length_c   9.91325464
_cell_angle_alpha   90.00000000
_cell_angle_beta   90.00000000
_cell_angle_gamma   90.00000000
_symmetry_Int_Tables_number   1
_chemical_formula_structural   HC2
_chemical_formula_sum   'H14 C28'
_cell_volume   2118.15322227
_cell_formula_units_Z   14
loop_
 _symmetry_equiv_pos_site_id
 _symmetry_equiv_pos_as_xyz
  1  'x, y, z'
loop_
 _atom_site_type_symbol
 _atom_site_label
 _atom_site_symmetry_multiplicity
 _atom_site_fract_x
 _atom_site_fract_y
 _atom_site_fract_z
 _atom_site_occupancy
  C  C0  1  0.50000065  0.27712226  0.08068439  1
  C  C1  1  0.49999957  0.27442893  0.33692935  1
  C  C2  1  0.50000020  0.27942054  0.58808034  1
  C  C3  1  0.50000143  0.28095747  0.83439038  1
  C  C4  1  0.50000012  0.30500411  0.20987813  1
  C  C5  1  0.50000001  0.30832867  0.46000482  1
  C  C6  1  0.50000063  0.31311152  0.71093958  1
  C  C7  1  0.50000076  0.31239035  0.95919003  1
  C  C8  1  0.50000024  0.37239065  0.21068127  1
  C  C9  1  0.50000038  0.37622286  0.45771747  1
  C  C10  1  0.50000011  0.38155520  0.71161331  1
  C  C11  1  0.49999996  0.38107189  0.96094693  1
  C  C12  1  0.49999986  0.40672280  0.08984532  1
  C  C13  1  0.50000034  0.40551497  0.33309356  1
  C  C14  1  0.50000037  0.41185650  0.58317104  1
  C  C15  1  0.49999971  0.41710177  0.83397765  1
  C  C16  1  0.50000041  0.47694524  0.57812388  1
  C  C17  1  0.49999944  0.48587968  0.82378613  1
  C  C18  1  0.49999996  0.51502677  0.69203725  1
  C  C19  1  0.49999904  0.52971163  0.93219466  1
  C  C20  1  0.49999990  0.58336327  0.67362254  1
  C  C21  1  0.49999933  0.59409309  0.91574063  1
  C  C22  1  0.49999993  0.61135390  0.54472279  1
  C  C23  1  0.49999972  0.62349261  0.78909452  1
  C  C24  1  0.49999986  0.67675781  0.52896625  1
  C  C25  1  0.49999972  0.69193185  0.77416465  1
  C  C26  1  0.49999980  0.71626599  0.63920392  1
  C  C27  1  0.49999965  0.73329428  0.88158427  1
  H  H28  1  0.50000090  0.22592262  0.07146128  1
  H  H29  1  0.49999885  0.22308061  0.34124025  1
  H  H30  1  0.50000008  0.22810625  0.59361463  1
  H  H31  1  0.50000253  0.22959784  0.83390331  1
  H  H32  1  0.49999966  0.76719424  0.62532114  1
  H  H33  1  0.49999999  0.78381820  0.86226326  1
  H  H34  1  0.49999943  0.45653467  0.10641962  1
  H  H35  1  0.50000024  0.45653850  0.32496298  1
  H  H36  1  0.50000077  0.49942461  0.47987349  1
  H  H37  1  0.49999971  0.58275036  0.45333008  1
  H  H38  1  0.49999991  0.69639419  0.42683768  1
  H  H39  1  0.49999848  0.51548604  0.03666919  1
  H  H40  1  0.49999907  0.62253930  0.00764861  1
  H  H41  1  0.49999925  0.71853058  -0.01282020  1
