# generated using pymatgen
data_H9C22
_symmetry_space_group_name_H-M   'P 1'
_cell_length_a   10.00000000
_cell_length_b   25.62946000
_cell_length_c   9.91374372
_cell_angle_alpha   90.00000000
_cell_angle_beta   90.00000000
_cell_angle_gamma   90.00000000
_symmetry_Int_Tables_number   1
_chemical_formula_structural   H9C22
_chemical_formula_sum   'H18 C44'
_cell_volume   2540.83898048
_cell_formula_units_Z   2
loop_
 _symmetry_equiv_pos_site_id
 _symmetry_equiv_pos_as_xyz
  1  'x, y, z'
loop_
 _atom_site_type_symbol
 _atom_site_label
 _atom_site_symmetry_multiplicity
 _atom_site_fract_x
 _atom_site_fract_y
 _atom_site_fract_z
 _atom_site_occupancy
  C  C0  1  0.50000064  0.82030911  0.65539931  1
  C  C1  1  0.50000545  0.80618565  0.89761848  1
  C  C2  1  0.50000026  0.19055541  0.02399352  1
  C  C3  1  0.50000183  0.19026890  0.27649060  1
  C  C4  1  0.50000098  0.19112715  0.52695649  1
  C  C5  1  0.49999917  0.19169137  0.77488783  1
  C  C6  1  0.50000324  0.21608362  0.15008069  1
  C  C7  1  0.50000266  0.21707636  0.40188036  1
  C  C8  1  0.50000255  0.21845725  0.65079343  1
  C  C9  1  0.50000147  0.21803724  0.89961346  1
  C  C10  1  0.50000449  0.27238107  0.15010049  1
  C  C11  1  0.50000360  0.27364395  0.40235591  1
  C  C12  1  0.50000549  0.27502927  0.65081484  1
  C  C13  1  0.50000312  0.27454520  0.89939033  1
  C  C14  1  0.50000264  0.30070279  0.02648832  1
  C  C15  1  0.50000183  0.29922508  0.27551925  1
  C  C16  1  0.50000479  0.30264937  0.52600350  1
  C  C17  1  0.50000278  0.30286883  0.77464673  1
  C  C18  1  0.49999776  0.35659796  0.02871531  1
  C  C19  1  0.49998214  0.35454881  0.27519742  1
  C  C20  1  0.49999076  0.35951833  0.52469683  1
  C  C21  1  0.50000214  0.35963393  0.77395086  1
  C  C22  1  0.49998334  0.38188712  0.15229212  1
  C  C23  1  0.49995765  0.38216562  0.39717786  1
  C  C24  1  0.50000169  0.38960974  0.65171687  1
  C  C25  1  0.50000049  0.38554516  0.90194427  1
  C  C26  1  0.50001277  0.44683441  0.66125099  1
  C  C27  1  0.49999492  0.43946590  0.90656239  1
  C  C28  1  0.50004695  0.48391261  0.55287993  1
  C  C29  1  0.49999784  0.47118071  0.79228177  1
  C  C30  1  0.50002455  0.53712390  0.56997008  1
  C  C31  1  0.49999373  0.52766310  0.81145227  1
  C  C32  1  0.49999398  0.56136424  0.69841749  1
  C  C33  1  0.49999423  0.55131119  0.94156822  1
  C  C34  1  0.49999083  0.61741063  0.71487387  1
  C  C35  1  0.49999518  0.60465443  0.95803186  1
  C  C36  1  0.49999155  0.65171021  0.60217967  1
  C  C37  1  0.49999340  0.63960661  0.84667242  1
  C  C38  1  0.49999562  0.70514943  0.61849363  1
  C  C39  1  0.49999670  0.69591526  0.86414510  1
  C  C40  1  0.49999792  0.72881615  0.74747655  1
  C  C41  1  0.49999990  0.71925861  0.99379853  1
  C  C42  1  0.50000143  0.78576945  0.76299277  1
  C  C43  1  0.50000491  0.77359782  1.00909862  1
  H  H44  1  0.50000395  0.86237953  0.67492951  1
  H  H45  1  0.50000832  0.84865674  0.91079327  1
  H  H46  1  0.49999603  0.14776755  0.02088573  1
  H  H47  1  0.49999976  0.14742741  0.27803229  1
  H  H48  1  0.49999806  0.14834260  0.52919120  1
  H  H49  1  0.49999464  0.14889606  0.77394842  1
  H  H50  1  0.49999519  0.80805402  0.54980618  1
  H  H51  1  0.49997712  0.42442548  0.15943225  1
  H  H52  1  0.49989528  0.42373319  0.38286549  1
  H  H53  1  0.50011626  0.47257254  0.44819500  1
  H  H54  1  0.50004625  0.56092392  0.47848254  1
  H  H55  1  0.49998896  0.63583638  0.49981827  1
  H  H56  1  0.49999766  0.72987491  0.52854678  1
  H  H57  1  0.49999083  0.45824996  0.00459987  1
  H  H58  1  0.49999694  0.52757168  0.03313031  1
  H  H59  1  0.49999857  0.61987724  0.06109222  1
  H  H60  1  0.49999849  0.69500072  0.08450709  1
  H  H61  1  0.50000834  0.79037560  0.11087228  1
