# generated using pymatgen
data_H2C7
_symmetry_space_group_name_H-M   'P 1'
_cell_length_a   10.00000000
_cell_length_b   29.89204000
_cell_length_c   9.91333846
_cell_angle_alpha   90.00000000
_cell_angle_beta   90.00000000
_cell_angle_gamma   90.00000000
_symmetry_Int_Tables_number   1
_chemical_formula_structural   H2C7
_chemical_formula_sum   'H16 C56'
_cell_volume   2963.29909790
_cell_formula_units_Z   8
loop_
 _symmetry_equiv_pos_site_id
 _symmetry_equiv_pos_as_xyz
  1  'x, y, z'
loop_
 _atom_site_type_symbol
 _atom_site_label
 _atom_site_symmetry_multiplicity
 _atom_site_fract_x
 _atom_site_fract_y
 _atom_site_fract_z
 _atom_site_occupancy
  C  C0  1  0.50000003  0.20099462  0.52497685  1
  C  C1  1  0.50000000  0.19379206  0.76712238  1
  C  C2  1  0.50000000  0.22159501  0.64973219  1
  C  C3  1  0.49999995  0.21328398  0.89261983  1
  C  C4  1  0.50000000  0.27078771  0.66990448  1
  C  C5  1  0.49999990  0.26001336  0.91018279  1
  C  C6  1  0.50000001  0.29775110  0.55654675  1
  C  C7  1  0.49999996  0.29140748  0.80248544  1
  C  C8  1  0.50000007  0.34722808  0.06528139  1
  C  C9  1  0.50000002  0.34737862  0.31053619  1
  C  C10  1  0.50000000  0.34428361  0.56091167  1
  C  C11  1  0.49999998  0.34087240  0.81126979  1
  C  C12  1  0.50000003  0.37079890  0.18751273  1
  C  C13  1  0.50000000  0.36901647  0.43482197  1
  C  C14  1  0.49999999  0.36663038  0.68887653  1
  C  C15  1  0.50000000  0.36681587  0.93748284  1
  C  C16  1  0.50000000  0.41814617  0.18714154  1
  C  C17  1  0.50000000  0.41688125  0.43719451  1
  C  C18  1  0.49999999  0.41532752  0.68824726  1
  C  C19  1  0.49999998  0.41552918  0.93616832  1
  C  C20  1  0.49999999  0.44032952  0.06029755  1
  C  C21  1  0.49999999  0.44102298  0.31304045  1
  C  C22  1  0.50000000  0.43976355  0.56365887  1
  C  C23  1  0.49999998  0.43966552  0.81182163  1
  C  C24  1  0.49999999  0.48821142  0.06075616  1
  C  C25  1  0.50000000  0.48857465  0.31335479  1
  C  C26  1  0.50000001  0.48775849  0.56382293  1
  C  C27  1  0.49999999  0.48794547  0.81200538  1
  C  C28  1  0.50000000  0.51142328  0.18663700  1
  C  C29  1  0.50000001  0.51178803  0.43923601  1
  C  C30  1  0.50000001  0.51205759  0.68798821  1
  C  C31  1  0.49999999  0.51224346  0.93617221  1
  C  C32  1  0.50000001  0.55897473  0.18695095  1
  C  C33  1  0.50000001  0.55966989  0.43969450  1
  C  C34  1  0.50000002  0.56033790  0.68817122  1
  C  C35  1  0.50000000  0.56023832  0.93633603  1
  C  C36  1  0.50000000  0.58311859  0.06280141  1
  C  C37  1  0.50000000  0.58185053  0.31284874  1
  C  C38  1  0.50000002  0.58447340  0.56382174  1
  C  C39  1  0.50000001  0.58467477  0.81174917  1
  C  C40  1  0.50000000  0.63098311  0.06517230  1
  C  C41  1  0.49999997  0.62919659  0.31247828  1
  C  C42  1  0.50000000  0.63318797  0.56250879  1
  C  C43  1  0.50000001  0.63337178  0.81112196  1
  C  C44  1  0.49999998  0.65261799  0.18946140  1
  C  C45  1  0.49999993  0.65277217  0.43470300  1
  C  C46  1  0.50000002  0.65913009  0.68872861  1
  C  C47  1  0.50000000  0.65571835  0.93908718  1
  C  C48  1  0.50000004  0.70859486  0.69752423  1
  C  C49  1  0.49999998  0.70225126  0.94346740  1
  C  C50  1  0.50000010  0.73998777  0.58981966  1
  C  C51  1  0.50000000  0.72921501  0.83010636  1
  C  C52  1  0.50000005  0.78671862  0.60738796  1
  C  C53  1  0.50000000  0.77840758  0.85027451  1
  C  C54  1  0.50000000  0.80621155  0.73288156  1
  C  C55  1  0.49999997  0.79900322  0.97503666  1
  H  H56  1  0.50000004  0.16435558  0.52005647  1
  H  H57  1  0.50000001  0.15731525  0.75538999  1
  H  H58  1  0.49999999  0.84268951  0.74465101  1
  H  H59  1  0.49999996  0.83564198  0.97995735  1
  H  H60  1  0.50000004  0.21876829  0.42862394  1
  H  H61  1  0.50000003  0.28120568  0.45886443  1
  H  H62  1  0.50000019  0.31154619  0.07866138  1
  H  H63  1  0.50000002  0.31090108  0.30334290  1
  H  H64  1  0.49999998  0.68909424  0.19668703  1
  H  H65  1  0.49999982  0.68845276  0.42128271  1
  H  H66  1  0.50000024  0.73050007  0.48489930  1
  H  H67  1  0.50000008  0.80767602  0.51656321  1
  H  H68  1  0.49999993  0.19231905  -0.01657708  1
  H  H69  1  0.49999976  0.26949679  0.01510034  1
  H  H70  1  0.49999997  0.71878851  0.04117015  1
  H  H71  1  0.49999996  0.78122525  0.07138663  1
