# generated using pymatgen
data_H5C18
_symmetry_space_group_name_H-M   'P 1'
_cell_length_a   10.00000000
_cell_length_b   21.36688000
_cell_length_c   9.88258508
_cell_angle_alpha   90.00000000
_cell_angle_beta   90.00000000
_cell_angle_gamma   90.00000000
_symmetry_Int_Tables_number   1
_chemical_formula_structural   H5C18
_chemical_formula_sum   'H10 C36'
_cell_volume   2111.60009444
_cell_formula_units_Z   2
loop_
 _symmetry_equiv_pos_site_id
 _symmetry_equiv_pos_as_xyz
  1  'x, y, z'
loop_
 _atom_site_type_symbol
 _atom_site_label
 _atom_site_symmetry_multiplicity
 _atom_site_fract_x
 _atom_site_fract_y
 _atom_site_fract_z
 _atom_site_occupancy
  C  C0  1  0.50000000  0.26572822  0.58815914  1
  C  C1  1  0.50000040  0.28379841  0.82119414  1
  C  C2  1  0.49999997  0.31155131  0.68788247  1
  C  C3  1  0.50000009  0.31749867  0.93753108  1
  C  C4  1  0.49999975  0.38759430  0.18544751  1
  C  C5  1  0.49999997  0.38760234  0.43175994  1
  C  C6  1  0.49999951  0.38091433  0.68293312  1
  C  C7  1  0.49999950  0.38398724  0.93548872  1
  C  C8  1  0.49999935  0.41818799  0.06058935  1
  C  C9  1  0.49999983  0.42018211  0.30870214  1
  C  C10  1  0.49999946  0.41647085  0.55838741  1
  C  C11  1  0.49999931  0.41541648  0.80772535  1
  C  C12  1  0.49999938  0.48543553  0.05929025  1
  C  C13  1  0.49999962  0.48686916  0.30903781  1
  C  C14  1  0.49999946  0.48431918  0.55955162  1
  C  C15  1  0.49999945  0.48350951  0.80859714  1
  C  C16  1  0.49999969  0.51910790  0.18362984  1
  C  C17  1  0.49999973  0.51851342  0.43517942  1
  C  C18  1  0.49999972  0.51733356  0.68454122  1
  C  C19  1  0.49999968  0.51757562  0.93342233  1
  C  C20  1  0.50000015  0.58606282  0.18407921  1
  C  C21  1  0.50000019  0.58565628  0.43528007  1
  C  C22  1  0.50000034  0.58489730  0.68483417  1
  C  C23  1  0.50000024  0.58494989  0.93404573  1
  C  C24  1  0.50000051  0.61859704  0.05886686  1
  C  C25  1  0.50000027  0.61871194  0.30992287  1
  C  C26  1  0.50000054  0.61843797  0.56024260  1
  C  C27  1  0.50000043  0.61814228  0.80947181  1
  C  C28  1  0.50000059  0.68634009  0.05938384  1
  C  C29  1  0.50000024  0.68644424  0.30986343  1
  C  C30  1  0.50000048  0.68617356  0.56010014  1
  C  C31  1  0.50000040  0.68598700  0.80976312  1
  C  C32  1  0.50000026  0.71822705  0.18455694  1
  C  C33  1  0.50000016  0.71824038  0.43512025  1
  C  C34  1  0.50000028  0.71802874  0.68508689  1
  C  C35  1  0.50000035  0.71814581  0.93443154  1
  H  H36  1  0.50000029  0.21704453  0.62345668  1
  H  H37  1  0.50000058  0.23258426  0.82597984  1
  H  H38  1  0.49999981  0.76959312  0.18437474  1
  H  H39  1  0.49999974  0.76963771  0.43558983  1
  H  H40  1  0.50000004  0.76938123  0.68530639  1
  H  H41  1  0.50000000  0.76949684  0.93410070  1
  H  H42  1  0.49999964  0.27009771  0.47871953  1
  H  H43  1  0.49999999  0.33657752  0.19092149  1
  H  H44  1  0.50000042  0.33729428  0.42414327  1
  H  H45  1  0.50000017  0.29213846  0.03330806  1
