# generated using pymatgen
data_H3C10
_symmetry_space_group_name_H-M   'P 1'
_cell_length_a   10.00000000
_cell_length_b   29.89204000
_cell_length_c   9.89241790
_cell_angle_alpha   90.00000000
_cell_angle_beta   90.00000000
_cell_angle_gamma   90.00000000
_symmetry_Int_Tables_number   1
_chemical_formula_structural   H3C10
_chemical_formula_sum   'H18 C60'
_cell_volume   2957.04551551
_cell_formula_units_Z   6
loop_
 _symmetry_equiv_pos_site_id
 _symmetry_equiv_pos_as_xyz
  1  'x, y, z'
loop_
 _atom_site_type_symbol
 _atom_site_label
 _atom_site_symmetry_multiplicity
 _atom_site_fract_x
 _atom_site_fract_y
 _atom_site_fract_z
 _atom_site_occupancy
  C  C0  1  0.49999751  0.84661032  0.66224778  1
  C  C1  1  0.50000112  0.83476360  0.90547406  1
  C  C2  1  0.50000007  0.16393999  0.03316010  1
  C  C3  1  0.50000007  0.16393938  0.28316644  1
  C  C4  1  0.50000006  0.16390232  0.53324039  1
  C  C5  1  0.50000007  0.16386221  0.78319378  1
  C  C6  1  0.50000005  0.18672585  0.15808994  1
  C  C7  1  0.50000004  0.18668449  0.40831444  1
  C  C8  1  0.50000003  0.18668408  0.65833822  1
  C  C9  1  0.50000007  0.18669724  0.90804898  1
  C  C10  1  0.49999997  0.23513626  0.15806945  1
  C  C11  1  0.49999993  0.23508538  0.40855800  1
  C  C12  1  0.49999994  0.23508715  0.65852643  1
  C  C13  1  0.50000003  0.23509230  0.90796833  1
  C  C14  1  0.49999993  0.25876652  0.03290323  1
  C  C15  1  0.49999985  0.25869127  0.28344600  1
  C  C16  1  0.49999984  0.25874332  0.53354164  1
  C  C17  1  0.49999994  0.25886843  0.78319730  1
  C  C18  1  0.49999968  0.30669828  0.03248047  1
  C  C19  1  0.49999958  0.30656689  0.28364838  1
  C  C20  1  0.49999959  0.30672800  0.53381657  1
  C  C21  1  0.49999973  0.30699129  0.78293782  1
  C  C22  1  0.49999944  0.32989048  0.15775123  1
  C  C23  1  0.49999947  0.33027021  0.40920204  1
  C  C24  1  0.49999948  0.33089638  0.65844697  1
  C  C25  1  0.49999968  0.33089670  0.90746543  1
  C  C26  1  0.49999943  0.37753376  0.15753302  1
  C  C27  1  0.49999943  0.37820899  0.40978671  1
  C  C28  1  0.49999931  0.37900777  0.65845690  1
  C  C29  1  0.49999980  0.37886363  0.90703731  1
  C  C30  1  0.49999987  0.40179353  0.03363175  1
  C  C31  1  0.49999970  0.40050692  0.28310950  1
  C  C32  1  0.49999932  0.40301674  0.53381470  1
  C  C33  1  0.49999984  0.40321844  0.78223046  1
  C  C34  1  0.50000058  0.44954961  0.03601907  1
  C  C35  1  0.50000234  0.44781666  0.28282065  1
  C  C36  1  0.50000113  0.45161115  0.53252365  1
  C  C37  1  0.49999996  0.45184177  0.78135964  1
  C  C38  1  0.50000232  0.47128444  0.15980036  1
  C  C39  1  0.50000551  0.47129295  0.40524583  1
  C  C40  1  0.49999979  0.47760823  0.65909463  1
  C  C41  1  0.50000033  0.47422845  0.90919821  1
  C  C42  1  0.49999830  0.52668237  0.66786434  1
  C  C43  1  0.50000118  0.52040403  0.91354447  1
  C  C44  1  0.49999322  0.55865190  0.55926162  1
  C  C45  1  0.50000069  0.54758408  0.79913763  1
  C  C46  1  0.49999563  0.60424393  0.57698066  1
  C  C47  1  0.50000129  0.59598037  0.81880348  1
  C  C48  1  0.50000008  0.62494700  0.70579366  1
  C  C49  1  0.50000271  0.61616448  0.94929290  1
  C  C50  1  0.50000014  0.67297212  0.72251824  1
  C  C51  1  0.50000259  0.66188293  0.96611242  1
  C  C52  1  0.49999851  0.70244362  0.60973511  1
  C  C53  1  0.50000119  0.69191519  0.85468751  1
  C  C54  1  0.49999822  0.74822005  0.62617495  1
  C  C55  1  0.50000089  0.74018111  0.87246936  1
  C  C56  1  0.49999947  0.76842406  0.75556475  1
  C  C57  1  0.50000211  0.76020761  1.00237186  1
  C  C58  1  0.49999934  0.81722874  0.77071108  1
  C  C59  1  0.50000236  0.80682955  1.01728584  1
  H  H60  1  0.49999754  0.88275794  0.68066046  1
  H  H61  1  0.50000149  0.87119292  0.91826893  1
  H  H62  1  0.50000006  0.12724051  0.03319573  1
  H  H63  1  0.50000007  0.12723689  0.28305851  1
  H  H64  1  0.50000009  0.12720634  0.53342171  1
  H  H65  1  0.50000008  0.12716484  0.78316828  1
  H  H66  1  0.49999570  0.83564108  0.55679910  1
  H  H67  1  0.50000310  0.50776652  0.16686298  1
  H  H68  1  0.50001365  0.50696928  0.39298978  1
  H  H69  1  0.49998385  0.54962658  0.45364956  1
  H  H70  1  0.49999220  0.62478114  0.48551396  1
  H  H71  1  0.49999751  0.68889939  0.50713056  1
  H  H72  1  0.49999705  0.76940191  0.53592022  1
  H  H73  1  0.50000166  0.53661936  0.01154510  1
  H  H74  1  0.50000396  0.59570810  0.04082991  1
  H  H75  1  0.50000375  0.67497224  0.06929455  1
  H  H76  1  0.50000296  0.73945120  0.09338645  1
  H  H77  1  0.50000355  0.82131383  0.11909853  1
