# generated using pymatgen
data_HC2
_symmetry_space_group_name_H-M   'P 1'
_cell_length_a   10.00000000
_cell_length_b   29.89204000
_cell_length_c   9.99423746
_cell_angle_alpha   90.00000000
_cell_angle_beta   90.00000000
_cell_angle_gamma   90.00000000
_symmetry_Int_Tables_number   1
_chemical_formula_structural   HC2
_chemical_formula_sum   'H22 C44'
_cell_volume   2987.48145951
_cell_formula_units_Z   22
loop_
 _symmetry_equiv_pos_site_id
 _symmetry_equiv_pos_as_xyz
  1  'x, y, z'
loop_
 _atom_site_type_symbol
 _atom_site_label
 _atom_site_symmetry_multiplicity
 _atom_site_fract_x
 _atom_site_fract_y
 _atom_site_fract_z
 _atom_site_occupancy
  C  C0  1  0.49999931  0.18798582  0.65596091  1
  C  C1  1  0.50000173  0.20115947  0.89564554  1
  C  C2  1  0.49999985  0.21810877  0.76148784  1
  C  C3  1  0.50000175  0.22951928  1.00527516  1
  C  C4  1  0.49999748  0.26689801  0.74444750  1
  C  C5  1  0.49999945  0.27602160  0.98840680  1
  C  C6  1  0.49999489  0.28686546  0.61601538  1
  C  C7  1  0.49999655  0.29551288  0.85919688  1
  C  C8  1  0.49998898  0.33265222  0.59871472  1
  C  C9  1  0.49999190  0.34369566  0.84085296  1
  C  C10  1  0.49998647  0.36241026  0.70979754  1
  C  C11  1  0.49999533  0.37386200  0.95087180  1
  C  C12  1  0.49998907  0.41052614  0.69334326  1
  C  C13  1  0.49999339  0.41955191  0.93424874  1
  C  C14  1  0.50003668  0.43135711  0.56616590  1
  C  C15  1  0.49999021  0.43971595  0.80503372  1
  C  C16  1  0.50007842  0.47697301  0.54903036  1
  C  C17  1  0.49999562  0.48817325  0.78575277  1
  C  C18  1  0.50002244  0.50907240  0.65600236  1
  C  C19  1  0.49998861  0.51542303  0.89897826  1
  C  C20  1  0.49997583  0.56248957  0.14721385  1
  C  C21  1  0.49993241  0.56379870  0.39540494  1
  C  C22  1  0.50000326  0.55837215  0.64721570  1
  C  C23  1  0.49999740  0.56162498  0.89564289  1
  C  C24  1  0.49999311  0.58497252  0.02477141  1
  C  C25  1  0.49997398  0.58543398  0.27064025  1
  C  C26  1  0.49998588  0.58437051  0.52134568  1
  C  C27  1  0.50000089  0.58431070  0.76801209  1
  C  C28  1  0.49999920  0.63287565  0.02430935  1
  C  C29  1  0.49999814  0.63282257  0.27041285  1
  C  C30  1  0.50000314  0.63363932  0.52126675  1
  C  C31  1  0.50000152  0.63356485  0.76784425  1
  C  C32  1  0.50000279  0.65559985  0.14673864  1
  C  C33  1  0.49998817  0.65437989  0.39537790  1
  C  C34  1  0.50000851  0.65952457  0.64687948  1
  C  C35  1  0.49999939  0.65607540  0.89545692  1
  C  C36  1  0.50001366  0.70913415  0.65504597  1
  C  C37  1  0.49999367  0.70253377  0.89850406  1
  C  C38  1  0.50003481  0.74096099  0.54891609  1
  C  C39  1  0.49999779  0.72960186  0.78648350  1
  C  C40  1  0.50001428  0.78760642  0.56761194  1
  C  C41  1  0.49999456  0.77860833  0.80810643  1
  C  C42  1  0.49999343  0.80672927  0.69266240  1
  C  C43  1  0.49999553  0.79883400  0.93253706  1
  H  H44  1  0.50000067  0.15199205  0.67696538  1
  H  H45  1  0.50000239  0.16478248  0.90968518  1
  H  H46  1  0.49998652  0.84310597  0.70588941  1
  H  H47  1  0.49999429  0.83543445  0.93829037  1
  H  H48  1  0.49999711  0.19791926  0.55065823  1
  H  H49  1  0.49999737  0.26554054  0.52699582  1
  H  H50  1  0.49998615  0.34595780  0.49674412  1
  H  H51  1  0.50006693  0.41093668  0.47537157  1
  H  H52  1  0.50019728  0.48601083  0.44464288  1
  H  H53  1  0.49997137  0.52595566  0.15258682  1
  H  H54  1  0.49981683  0.52803247  0.38666931  1
  H  H55  1  0.50000824  0.69214793  0.15080276  1
  H  H56  1  0.49995019  0.69017747  0.38756989  1
  H  H57  1  0.50008278  0.73251428  0.44398373  1
  H  H58  1  0.50002164  0.80880816  0.47800741  1
  H  H59  1  0.50000315  0.21547431  0.10660503  1
  H  H60  1  0.49999929  0.29725260  0.07737043  1
  H  H61  1  0.50000178  0.36083264  0.05308568  1
  H  H62  1  0.49999904  0.43997301  0.02491652  1
  H  H63  1  0.49998062  0.49927912  -0.00380891  1
  H  H64  1  0.49998742  0.71907291  -0.00475518  1
  H  H65  1  0.49999948  0.78104613  0.02809472  1
