# generated using pymatgen
data_HC2
_symmetry_space_group_name_H-M   'P 1'
_cell_length_a   10.00000000
_cell_length_b   25.62946000
_cell_length_c   9.99409528
_cell_angle_alpha   90.00000000
_cell_angle_beta   90.00000000
_cell_angle_gamma   90.00000000
_symmetry_Int_Tables_number   1
_chemical_formula_structural   HC2
_chemical_formula_sum   'H18 C36'
_cell_volume   2561.43265291
_cell_formula_units_Z   18
loop_
 _symmetry_equiv_pos_site_id
 _symmetry_equiv_pos_as_xyz
  1  'x, y, z'
loop_
 _atom_site_type_symbol
 _atom_site_label
 _atom_site_symmetry_multiplicity
 _atom_site_fract_x
 _atom_site_fract_y
 _atom_site_fract_z
 _atom_site_occupancy
  C  C0  1  0.49999744  0.23676046  0.54873165  1
  C  C1  1  0.49999727  0.22680453  0.78828578  1
  C  C2  1  0.49999760  0.25995201  0.67359226  1
  C  C3  1  0.49999594  0.24882370  0.91358372  1
  C  C4  1  0.49999794  0.31701837  0.69640146  1
  C  C5  1  0.49999492  0.30322618  0.93353038  1
  C  C6  1  0.49999855  0.34866530  0.58467924  1
  C  C7  1  0.49999730  0.34065858  0.82819274  1
  C  C8  1  0.50000316  0.40451918  0.08841527  1
  C  C9  1  0.50000157  0.40309774  0.33702085  1
  C  C10  1  0.49999937  0.40276301  0.58832783  1
  C  C11  1  0.49999895  0.39855855  0.83700865  1
  C  C12  1  0.50000149  0.42969499  0.21345238  1
  C  C13  1  0.50000026  0.42968829  0.45944770  1
  C  C14  1  0.49999942  0.42882907  0.71607849  1
  C  C15  1  0.50000052  0.42879380  0.96266180  1
  C  C16  1  0.49999999  0.48500608  0.21348726  1
  C  C17  1  0.49999988  0.48554570  0.45928292  1
  C  C18  1  0.50000008  0.48618019  0.71602765  1
  C  C19  1  0.50000015  0.48627384  0.96279761  1
  C  C20  1  0.50000082  0.51031335  0.08883010  1
  C  C21  1  0.49999948  0.51180958  0.33687066  1
  C  C22  1  0.50000031  0.51262234  0.58848845  1
  C  C23  1  0.50000018  0.51641759  0.83681567  1
  C  C24  1  0.50000164  0.56655666  0.58520856  1
  C  C25  1  0.50000050  0.57391860  0.82788950  1
  C  C26  1  0.50000189  0.59830850  0.69798293  1
  C  C27  1  0.49999873  0.61111364  0.93468863  1
  C  C28  1  0.50000257  0.65501078  0.67812296  1
  C  C29  1  0.50000029  0.66453058  0.91726612  1
  C  C30  1  0.50000221  0.67791909  0.54937433  1
  C  C31  1  0.50000267  0.68876205  0.79128740  1
  C  C32  1  0.50000165  0.73229321  0.53286541  1
  C  C33  1  0.50000320  0.74561707  0.77587945  1
  C  C34  1  0.50000217  0.76553650  0.64192018  1
  C  C35  1  0.50000368  0.77983508  0.88316084  1
  H  H36  1  0.49999732  0.19410266  0.54176307  1
  H  H37  1  0.49999724  0.18439082  0.77441190  1
  H  H38  1  0.50000218  0.80793311  0.62757183  1
  H  H39  1  0.50000328  0.82204001  0.86542994  1
  H  H40  1  0.49999784  0.25797897  0.45392776  1
  H  H41  1  0.49999821  0.32965091  0.48759547  1
  H  H42  1  0.50000841  0.36272732  0.09548999  1
  H  H43  1  0.50000228  0.36046831  0.33229548  1
  H  H44  1  0.50000337  0.55203888  0.09778778  1
  H  H45  1  0.49999858  0.55443965  0.33161720  1
  H  H46  1  0.50000218  0.58539332  0.48806644  1
  H  H47  1  0.50000158  0.65378220  0.45933934  1
  H  H48  1  0.50000027  0.74843259  0.43127875  1
  H  H49  1  0.49999538  0.22373057  0.00247526  1
  H  H50  1  0.49999006  0.31300492  0.03853972  1
  H  H51  1  0.49999455  0.60068795  0.03914116  1
  H  H52  1  0.49999889  0.68829067  0.00819629  1
  H  H53  1  0.50000458  0.76685169  -0.01258420  1
