# generated using pymatgen
data_H5C14
_symmetry_space_group_name_H-M   'P 1'
_cell_length_a   10.00000000
_cell_length_b   29.89204000
_cell_length_c   9.92917406
_cell_angle_alpha   90.00000000
_cell_angle_beta   90.00000000
_cell_angle_gamma   90.00000000
_symmetry_Int_Tables_number   1
_chemical_formula_structural   H5C14
_chemical_formula_sum   'H20 C56'
_cell_volume   2968.03268071
_cell_formula_units_Z   4
loop_
 _symmetry_equiv_pos_site_id
 _symmetry_equiv_pos_as_xyz
  1  'x, y, z'
loop_
 _atom_site_type_symbol
 _atom_site_label
 _atom_site_symmetry_multiplicity
 _atom_site_fract_x
 _atom_site_fract_y
 _atom_site_fract_z
 _atom_site_occupancy
  C  C0  1  0.49999990  0.84912865  0.61826835  1
  C  C1  1  0.50000030  0.83677630  0.86018885  1
  C  C2  1  0.49999990  0.15087128  0.61826825  1
  C  C3  1  0.50000030  0.16322368  0.86018867  1
  C  C4  1  0.50000008  0.18050212  0.72552886  1
  C  C5  1  0.50000044  0.19160651  0.97018833  1
  C  C6  1  0.49999999  0.22927129  0.71014532  1
  C  C7  1  0.50000042  0.23826208  0.95384493  1
  C  C8  1  0.49999927  0.25005434  0.58308031  1
  C  C9  1  0.50000020  0.25811413  0.82434838  1
  C  C10  1  0.49999888  0.29588250  0.56550803  1
  C  C11  1  0.50000011  0.30678176  0.80457730  1
  C  C12  1  0.49999971  0.32768726  0.67355486  1
  C  C13  1  0.50000020  0.33401850  0.91829805  1
  C  C14  1  0.50000026  0.38320194  0.16461406  1
  C  C15  1  0.50000081  0.38311035  0.41057762  1
  C  C16  1  0.49999994  0.37689980  0.66449118  1
  C  C17  1  0.50000003  0.38027370  0.91403542  1
  C  C18  1  0.50000004  0.40485717  0.04069323  1
  C  C19  1  0.50000028  0.40647853  0.28804364  1
  C  C20  1  0.50000014  0.40277589  0.53787873  1
  C  C21  1  0.49999997  0.40277091  0.78637301  1
  C  C22  1  0.49999992  0.45260494  0.03803870  1
  C  C23  1  0.49999987  0.45376481  0.28858024  1
  C  C24  1  0.49999982  0.45145382  0.53918227  1
  C  C25  1  0.49999993  0.45152992  0.78686159  1
  C  C26  1  0.49999982  0.47629820  0.16220478  1
  C  C27  1  0.49999982  0.47602120  0.41560352  1
  C  C28  1  0.49999981  0.47580715  0.66342659  1
  C  C29  1  0.49999992  0.47595255  0.91148617  1
  C  C30  1  0.49999982  0.52370791  0.16218902  1
  C  C31  1  0.49999982  0.52397335  0.41562399  1
  C  C32  1  0.49999981  0.52419096  0.66343408  1
  C  C33  1  0.49999992  0.52405525  0.91147249  1
  C  C34  1  0.49999992  0.54739582  0.03806688  1
  C  C35  1  0.49999987  0.54623211  0.28856146  1
  C  C36  1  0.49999982  0.54854377  0.53918943  1
  C  C37  1  0.49999993  0.54847209  0.78684601  1
  C  C38  1  0.50000004  0.59514559  0.04069487  1
  C  C39  1  0.50000028  0.59352193  0.28805275  1
  C  C40  1  0.50000014  0.59722273  0.53787633  1
  C  C41  1  0.49999997  0.59722809  0.78636764  1
  C  C42  1  0.50000026  0.61679891  0.16463328  1
  C  C43  1  0.50000081  0.61688941  0.41057895  1
  C  C44  1  0.49999994  0.62310200  0.66447789  1
  C  C45  1  0.50000003  0.61972615  0.91403464  1
  C  C46  1  0.49999971  0.67231405  0.67355110  1
  C  C47  1  0.50000020  0.66597366  0.91829519  1
  C  C48  1  0.49999888  0.70411856  0.56550692  1
  C  C49  1  0.50000011  0.69321627  0.80457869  1
  C  C50  1  0.49999927  0.74994645  0.58308002  1
  C  C51  1  0.50000020  0.74188521  0.82434946  1
  C  C52  1  0.49999999  0.77072851  0.71014618  1
  C  C53  1  0.50000042  0.76173768  0.95384528  1
  C  C54  1  0.50000008  0.81949773  0.72552918  1
  C  C55  1  0.50000044  0.80839337  0.97018832  1
  H  H56  1  0.49999999  0.88518490  0.63820803  1
  H  H57  1  0.50000028  0.87316884  0.87412527  1
  H  H58  1  0.49999999  0.11481503  0.63820801  1
  H  H59  1  0.50000028  0.12683108  0.87412521  1
  H  H60  1  0.49999972  0.83871934  0.51268726  1
  H  H61  1  0.49999972  0.16128069  0.51268720  1
  H  H62  1  0.49999880  0.22938534  0.49203606  1
  H  H63  1  0.49999735  0.30526591  0.46060288  1
  H  H64  1  0.50000030  0.34670953  0.17140245  1
  H  H65  1  0.50000217  0.34742609  0.39787432  1
  H  H66  1  0.50000030  0.65329289  0.17141005  1
  H  H67  1  0.50000217  0.65257426  0.39787506  1
  H  H68  1  0.49999735  0.69473432  0.46060249  1
  H  H69  1  0.49999880  0.77061536  0.49203487  1
  H  H70  1  0.50000059  0.17760509  0.07224887  1
  H  H71  1  0.50000058  0.25870076  0.04500584  1
  H  H72  1  0.50000032  0.31790111  0.01618290  1
  H  H73  1  0.50000032  0.68209667  0.01617884  1
  H  H74  1  0.50000058  0.74129912  0.04500623  1
  H  H75  1  0.50000059  0.82239487  0.07224883  1
