# generated using pymatgen
data_H9C26
_symmetry_space_group_name_H-M   'P 1'
_cell_length_a   10.00000000
_cell_length_b   29.89204000
_cell_length_c   9.89873325
_cell_angle_alpha   90.00000000
_cell_angle_beta   90.00000000
_cell_angle_gamma   90.00000000
_symmetry_Int_Tables_number   1
_chemical_formula_structural   H9C26
_chemical_formula_sum   'H18 C52'
_cell_volume   2958.93330159
_cell_formula_units_Z   2
loop_
 _symmetry_equiv_pos_site_id
 _symmetry_equiv_pos_as_xyz
  1  'x, y, z'
loop_
 _atom_site_type_symbol
 _atom_site_label
 _atom_site_symmetry_multiplicity
 _atom_site_fract_x
 _atom_site_fract_y
 _atom_site_fract_z
 _atom_site_occupancy
  C  C0  1  0.50000000  0.19938399  0.09477570  1
  C  C1  1  0.50000003  0.19941008  0.34568486  1
  C  C2  1  0.50000002  0.19963549  0.59600264  1
  C  C3  1  0.50000002  0.19969006  0.84498944  1
  C  C4  1  0.50000002  0.22203909  0.22006704  1
  C  C5  1  0.50000002  0.22221304  0.47073323  1
  C  C6  1  0.50000002  0.22261222  0.72049611  1
  C  C7  1  0.50000004  0.22231480  0.97008597  1
  C  C8  1  0.50000005  0.27039213  0.21984045  1
  C  C9  1  0.50000001  0.27060192  0.47097371  1
  C  C10  1  0.50000002  0.27107414  0.72062366  1
  C  C11  1  0.50000009  0.27070785  0.96985776  1
  C  C12  1  0.50000007  0.29411618  0.09442829  1
  C  C13  1  0.50000009  0.29364665  0.34566454  1
  C  C14  1  0.49999999  0.29473783  0.59592295  1
  C  C15  1  0.50000010  0.29477431  0.84523259  1
  C  C16  1  0.50000012  0.34218393  0.09374615  1
  C  C17  1  0.50000012  0.34140077  0.34588695  1
  C  C18  1  0.49999996  0.34278706  0.59645363  1
  C  C19  1  0.50000015  0.34297442  0.84514072  1
  C  C20  1  0.50000010  0.36440082  0.22042114  1
  C  C21  1  0.49999997  0.36561456  0.46981594  1
  C  C22  1  0.50000000  0.36709456  0.72136058  1
  C  C23  1  0.50000022  0.36695574  0.96982362  1
  C  C24  1  0.49999962  0.41172115  0.22084880  1
  C  C25  1  0.49999985  0.41340113  0.46760472  1
  C  C26  1  0.50000000  0.41568652  0.72247355  1
  C  C27  1  0.49999989  0.41562231  0.97128616  1
  C  C28  1  0.49999890  0.43526142  0.09862902  1
  C  C29  1  0.49999968  0.43513700  0.34386787  1
  C  C30  1  0.49999978  0.43801571  0.59456900  1
  C  C31  1  0.50000017  0.44153074  0.84460246  1
  C  C32  1  0.49999930  0.48420127  0.58992599  1
  C  C33  1  0.50000059  0.49062366  0.83540398  1
  C  C34  1  0.49999964  0.51145113  0.70417164  1
  C  C35  1  0.50000221  0.52257109  0.94380552  1
  C  C36  1  0.49999942  0.55983458  0.68445680  1
  C  C37  1  0.50000165  0.56817435  0.92613330  1
  C  C38  1  0.49999840  0.57996818  0.55398190  1
  C  C39  1  0.50000020  0.58882686  0.79733534  1
  C  C40  1  0.49999842  0.62568328  0.53702893  1
  C  C41  1  0.50000024  0.63684106  0.78046504  1
  C  C42  1  0.49999949  0.65578291  0.64835275  1
  C  C43  1  0.50000112  0.66626423  0.89328513  1
  C  C44  1  0.49999965  0.70405899  0.63076771  1
  C  C45  1  0.50000113  0.71206898  0.87690435  1
  C  C46  1  0.49999901  0.72402292  0.50092405  1
  C  C47  1  0.50000035  0.73231341  0.74759474  1
  C  C48  1  0.49999886  0.77061558  0.48564401  1
  C  C49  1  0.50000027  0.78115882  0.73208626  1
  C  C50  1  0.49999942  0.79859773  0.59721923  1
  C  C51  1  0.50000097  0.81075674  0.83995722  1
  H  H52  1  0.49999998  0.16269673  0.09405124  1
  H  H53  1  0.50000003  0.16269491  0.34651246  1
  H  H54  1  0.50000000  0.16295035  0.59742369  1
  H  H55  1  0.50000000  0.16301254  0.84425233  1
  H  H56  1  0.49999930  0.83500769  0.58394202  1
  H  H57  1  0.50000085  0.84684825  0.82052692  1
  H  H58  1  0.49999694  0.47091787  0.11220249  1
  H  H59  1  0.49999979  0.47160274  0.33669809  1
  H  H60  1  0.49999889  0.50027150  0.49179479  1
  H  H61  1  0.49999747  0.55950272  0.46251507  1
  H  H62  1  0.49999746  0.63850688  0.43356678  1
  H  H63  1  0.49999839  0.70314725  0.41024427  1
  H  H64  1  0.49999812  0.78499604  0.38374799  1
  H  H65  1  0.50000490  0.51327452  0.04907269  1
  H  H66  1  0.50000289  0.58870635  0.01755659  1
  H  H67  1  0.50000200  0.65253942  -0.00435755  1
  H  H68  1  0.50000194  0.73319579  -0.03279625  1
  H  H69  1  0.50000158  0.80018758  -0.05430680  1
