# generated using pymatgen
data_H3C10
_symmetry_space_group_name_H-M   'P 1'
_cell_length_a   10.00000000
_cell_length_b   29.89204000
_cell_length_c   9.91200598
_cell_angle_alpha   90.00000000
_cell_angle_beta   90.00000000
_cell_angle_gamma   90.00000000
_symmetry_Int_Tables_number   1
_chemical_formula_structural   H3C10
_chemical_formula_sum   'H18 C60'
_cell_volume   2962.90079311
_cell_formula_units_Z   6
loop_
 _symmetry_equiv_pos_site_id
 _symmetry_equiv_pos_as_xyz
  1  'x, y, z'
loop_
 _atom_site_type_symbol
 _atom_site_label
 _atom_site_symmetry_multiplicity
 _atom_site_fract_x
 _atom_site_fract_y
 _atom_site_fract_z
 _atom_site_occupancy
  C  C0  1  0.50000001  0.83397336  0.48964624  1
  C  C1  1  0.49999989  0.84043940  0.73434377  1
  C  C2  1  0.49999958  0.15134163  0.61123046  1
  C  C3  1  0.50000013  0.16438386  0.84355755  1
  C  C4  1  0.49999990  0.18410716  0.71056487  1
  C  C5  1  0.50000013  0.18859211  0.95931594  1
  C  C6  1  0.50000010  0.23857956  0.20616914  1
  C  C7  1  0.50000020  0.23837367  0.45251427  1
  C  C8  1  0.49999994  0.23362924  0.70438939  1
  C  C9  1  0.50000002  0.23604141  0.95650831  1
  C  C10  1  0.50000003  0.26046176  0.08136652  1
  C  C11  1  0.50000010  0.26172881  0.32958373  1
  C  C12  1  0.50000002  0.25889488  0.57938607  1
  C  C13  1  0.49999998  0.25846977  0.82860519  1
  C  C14  1  0.50000008  0.30843878  0.07953698  1
  C  C15  1  0.50000007  0.30932413  0.32975411  1
  C  C16  1  0.50000000  0.30737895  0.58046574  1
  C  C17  1  0.50000005  0.30707866  0.82877356  1
  C  C18  1  0.50000016  0.33235056  0.20400376  1
  C  C19  1  0.50000010  0.33184399  0.45604807  1
  C  C20  1  0.50000006  0.33133863  0.70490825  1
  C  C21  1  0.50000017  0.33139842  0.95349747  1
  C  C22  1  0.50000040  0.37994167  0.20374469  1
  C  C23  1  0.50000031  0.37966463  0.45589148  1
  C  C24  1  0.50000025  0.37954668  0.70495223  1
  C  C25  1  0.50000041  0.37939201  0.95328605  1
  C  C26  1  0.50000050  0.40325225  0.07787175  1
  C  C27  1  0.50000054  0.40288740  0.33028281  1
  C  C28  1  0.50000031  0.40371763  0.58076654  1
  C  C29  1  0.50000051  0.40361707  0.82900736  1
  C  C30  1  0.50000050  0.45113947  0.07745388  1
  C  C31  1  0.50000055  0.45044608  0.33012201  1
  C  C32  1  0.50000025  0.45169221  0.58082681  1
  C  C33  1  0.50000066  0.45176949  0.82909108  1
  C  C34  1  0.50000025  0.47334249  0.20435494  1
  C  C35  1  0.50000017  0.47459931  0.45417973  1
  C  C36  1  0.50000020  0.47600862  0.70547840  1
  C  C37  1  0.50000058  0.47588720  0.95348574  1
  C  C38  1  0.49999784  0.52064141  0.20459405  1
  C  C39  1  0.49999948  0.52235934  0.45145619  1
  C  C40  1  0.50000009  0.52462021  0.70611658  1
  C  C41  1  0.49999889  0.52447400  0.95485202  1
  C  C42  1  0.49999500  0.54408582  0.08228523  1
  C  C43  1  0.49999785  0.54408266  0.32766651  1
  C  C44  1  0.49999979  0.54701942  0.57829196  1
  C  C45  1  0.50000014  0.55040856  0.82828892  1
  C  C46  1  0.49999918  0.59320084  0.57400000  1
  C  C47  1  0.50000143  0.59947746  0.81926568  1
  C  C48  1  0.49999968  0.62039300  0.68829890  1
  C  C49  1  0.50000532  0.63132624  0.92772257  1
  C  C50  1  0.49999936  0.66881755  0.66889094  1
  C  C51  1  0.50000279  0.67696663  0.91032397  1
  C  C52  1  0.49999950  0.68898388  0.53880413  1
  C  C53  1  0.49999941  0.69773787  0.78203915  1
  C  C54  1  0.49999962  0.73485218  0.52243276  1
  C  C55  1  0.49999912  0.74597776  0.76600246  1
  C  C56  1  0.49999942  0.76466187  0.63315666  1
  C  C57  1  0.49999915  0.77505613  0.87872801  1
  C  C58  1  0.49999976  0.81335976  0.61492853  1
  C  C59  1  0.49999960  0.82158331  0.86208393  1
  H  H60  1  0.50000025  0.87058004  0.48324181  1
  H  H61  1  0.50000022  0.87690096  0.72236440  1
  H  H62  1  0.49999973  0.11647252  0.64594657  1
  H  H63  1  0.50000019  0.12777819  0.84961103  1
  H  H64  1  0.49999995  0.81553921  0.39432426  1
  H  H65  1  0.49999902  0.15485842  0.50230187  1
  H  H66  1  0.50000015  0.20210067  0.21178413  1
  H  H67  1  0.50000056  0.20242134  0.44419315  1
  H  H68  1  0.49998769  0.57973424  0.09533670  1
  H  H69  1  0.49999709  0.58059481  0.32079760  1
  H  H70  1  0.49999862  0.60941428  0.47612767  1
  H  H71  1  0.49999987  0.66854791  0.44741093  1
  H  H72  1  0.50000001  0.74813591  0.41952422  1
  H  H73  1  0.50000019  0.17057914  0.05504534  1
  H  H74  1  0.50001323  0.62190158  0.03274867  1
  H  H75  1  0.50000512  0.69743850  0.00174109  1
  H  H76  1  0.49999883  0.76132921  -0.01913973  1
  H  H77  1  0.49999975  0.84322298  -0.04855372  1
