# generated using pymatgen
data_HC2
_symmetry_space_group_name_H-M   'P 1'
_cell_length_a   10.00000000
_cell_length_b   17.10430000
_cell_length_c   9.96340556
_cell_angle_alpha   90.00000000
_cell_angle_beta   90.00000000
_cell_angle_gamma   90.00000000
_symmetry_Int_Tables_number   1
_chemical_formula_structural   HC2
_chemical_formula_sum   'H12 C24'
_cell_volume   1704.17077777
_cell_formula_units_Z   12
loop_
 _symmetry_equiv_pos_site_id
 _symmetry_equiv_pos_as_xyz
  1  'x, y, z'
loop_
 _atom_site_type_symbol
 _atom_site_label
 _atom_site_symmetry_multiplicity
 _atom_site_fract_x
 _atom_site_fract_y
 _atom_site_fract_z
 _atom_site_occupancy
  C  C0  1  0.49999999  0.73121313  0.58615574  1
  C  C1  1  0.50000001  0.70836331  0.81653787  1
  C  C2  1  0.49999999  0.26878683  0.58615559  1
  C  C3  1  0.50000001  0.29163682  0.81653814  1
  C  C4  1  0.49999999  0.32624591  0.68415514  1
  C  C5  1  0.50000001  0.33406305  0.93108535  1
  C  C6  1  0.50000000  0.41830928  0.17944554  1
  C  C7  1  0.50000000  0.41984455  0.42783104  1
  C  C8  1  0.50000000  0.41334270  0.67804579  1
  C  C9  1  0.50000000  0.41726182  0.92899550  1
  C  C10  1  0.50000000  0.45774795  0.05565441  1
  C  C11  1  0.50000000  0.45812818  0.30306925  1
  C  C12  1  0.50000000  0.45710065  0.55357069  1
  C  C13  1  0.50000000  0.45693625  0.80158568  1
  C  C14  1  0.50000000  0.54225206  0.05565441  1
  C  C15  1  0.50000000  0.54187180  0.30306921  1
  C  C16  1  0.50000000  0.54289935  0.55357067  1
  C  C17  1  0.50000000  0.54306375  0.80158574  1
  C  C18  1  0.50000000  0.58169072  0.17944554  1
  C  C19  1  0.50000000  0.58015545  0.42783107  1
  C  C20  1  0.50000000  0.58665731  0.67804578  1
  C  C21  1  0.50000000  0.58273819  0.92899544  1
  C  C22  1  0.49999999  0.67375411  0.68415511  1
  C  C23  1  0.50000001  0.66593686  0.93108568  1
  H  H24  1  0.49999999  0.79201582  0.62135474  1
  H  H25  1  0.50000001  0.77234032  0.82228641  1
  H  H26  1  0.49999999  0.20798419  0.62135473  1
  H  H27  1  0.50000001  0.22765964  0.82228640  1
  H  H28  1  0.49999997  0.72596017  0.47761634  1
  H  H29  1  0.49999997  0.27403983  0.47761638  1
  H  H30  1  0.49999999  0.35441957  0.18316763  1
  H  H31  1  0.50000002  0.35689234  0.42286368  1
  H  H32  1  0.49999999  0.64558043  0.18316763  1
  H  H33  1  0.50000002  0.64310766  0.42286368  1
  H  H34  1  0.50000003  0.30292717  0.02657903  1
  H  H35  1  0.50000003  0.69707281  0.02657897  1
