# generated using pymatgen
data_H7C30
_symmetry_space_group_name_H-M   'P 1'
_cell_length_a   10.00000000
_cell_length_b   29.89204000
_cell_length_c   9.89094214
_cell_angle_alpha   90.00000000
_cell_angle_beta   90.00000000
_cell_angle_gamma   90.00000000
_symmetry_Int_Tables_number   1
_chemical_formula_structural   H7C30
_chemical_formula_sum   'H14 C60'
_cell_volume   2956.60438023
_cell_formula_units_Z   2
loop_
 _symmetry_equiv_pos_site_id
 _symmetry_equiv_pos_as_xyz
  1  'x, y, z'
loop_
 _atom_site_type_symbol
 _atom_site_label
 _atom_site_symmetry_multiplicity
 _atom_site_fract_x
 _atom_site_fract_y
 _atom_site_fract_z
 _atom_site_occupancy
  C  C0  1  0.49999902  0.18797887  0.62909115  1
  C  C1  1  0.50000044  0.20057049  0.87167407  1
  C  C2  1  0.49999963  0.21775247  0.73644352  1
  C  C3  1  0.50000119  0.22893596  0.98205032  1
  C  C4  1  0.49999958  0.26654155  0.72099750  1
  C  C5  1  0.50000111  0.27556447  0.96567634  1
  C  C6  1  0.49999897  0.28740428  0.59358951  1
  C  C7  1  0.50000022  0.29536493  0.83573981  1
  C  C8  1  0.49999908  0.33322331  0.57604761  1
  C  C9  1  0.50000006  0.34403866  0.81613683  1
  C  C10  1  0.49999979  0.36497917  0.68463070  1
  C  C11  1  0.49999999  0.37126500  0.93036297  1
  C  C12  1  0.50000020  0.42054812  0.17648408  1
  C  C13  1  0.50000068  0.42051298  0.42170006  1
  C  C14  1  0.50000003  0.41415529  0.67580439  1
  C  C15  1  0.49999998  0.41750465  0.92583873  1
  C  C16  1  0.49999997  0.44227906  0.05256695  1
  C  C17  1  0.50000027  0.44406309  0.29941755  1
  C  C18  1  0.50000020  0.44012350  0.54922342  1
  C  C19  1  0.50000006  0.43995416  0.79807892  1
  C  C20  1  0.49999995  0.49006919  0.05042284  1
  C  C21  1  0.49999997  0.49134803  0.29983238  1
  C  C22  1  0.49999998  0.48872833  0.55059769  1
  C  C23  1  0.50000004  0.48855751  0.79902502  1
  C  C24  1  0.49999992  0.51433830  0.17435050  1
  C  C25  1  0.49999996  0.51360137  0.42659371  1
  C  C26  1  0.49999996  0.51277539  0.67517554  1
  C  C27  1  0.49999998  0.51297937  0.92390233  1
  C  C28  1  0.49999993  0.56194510  0.17466475  1
  C  C29  1  0.49999994  0.56150982  0.42613034  1
  C  C30  1  0.49999995  0.56088503  0.67527019  1
  C  C31  1  0.49999996  0.56092979  0.92441137  1
  C  C32  1  0.49999995  0.58516517  0.04942952  1
  C  C33  1  0.49999994  0.58528258  0.30064072  1
  C  C34  1  0.49999995  0.58509624  0.55074752  1
  C  C35  1  0.49999997  0.58482507  0.79979193  1
  C  C36  1  0.49999997  0.63299869  0.04991376  1
  C  C37  1  0.49999996  0.63306655  0.30050748  1
  C  C38  1  0.49999998  0.63299154  0.55054584  1
  C  C39  1  0.49999999  0.63283529  0.80009055  1
  C  C40  1  0.49999998  0.65670574  0.17515236  1
  C  C41  1  0.49999998  0.65676204  0.42559408  1
  C  C42  1  0.49999999  0.65675063  0.67549597  1
  C  C43  1  0.49999999  0.65672430  0.92496725  1
  C  C44  1  0.49999999  0.70467003  0.17536375  1
  C  C45  1  0.49999999  0.70470413  0.42555805  1
  C  C46  1  0.50000000  0.70471656  0.67552948  1
  C  C47  1  0.49999999  0.70468153  0.92529446  1
  C  C48  1  0.49999999  0.72834062  0.05046414  1
  C  C49  1  0.50000000  0.72834869  0.30050616  1
  C  C50  1  0.50000000  0.72840057  0.55047254  1
  C  C51  1  0.49999999  0.72840750  0.80044496  1
  C  C52  1  0.49999999  0.77673944  0.05066144  1
  C  C53  1  0.50000000  0.77674304  0.30064635  1
  C  C54  1  0.50000000  0.77679967  0.55058046  1
  C  C55  1  0.50000000  0.77681482  0.80059896  1
  C  C56  1  0.49999999  0.79954362  0.17567337  1
  C  C57  1  0.50000000  0.79956769  0.42562776  1
  C  C58  1  0.50000000  0.79960484  0.67562023  1
  C  C59  1  0.50000000  0.79955993  0.92567793  1
  H  H60  1  0.49999933  0.15192215  0.64933316  1
  H  H61  1  0.50000050  0.16421511  0.88577382  1
  H  H62  1  0.49999999  0.83624151  0.17574373  1
  H  H63  1  0.50000000  0.83626320  0.42572705  1
  H  H64  1  0.50000000  0.83631086  0.67573460  1
  H  H65  1  0.50000000  0.83625918  0.92576263  1
  H  H66  1  0.49999843  0.19833075  0.52306989  1
  H  H67  1  0.49999859  0.26677807  0.50210350  1
  H  H68  1  0.49999834  0.34258248  0.47065537  1
  H  H69  1  0.50000029  0.38406477  0.18362504  1
  H  H70  1  0.50000158  0.38488363  0.40843928  1
  H  H71  1  0.50000187  0.21496037  0.08447375  1
  H  H72  1  0.50000175  0.29589879  0.05735548  1
  H  H73  1  0.49999970  0.35520540  0.02867459  1
