# generated using pymatgen
data_H5C14
_symmetry_space_group_name_H-M   'P 1'
_cell_length_a   10.00000000
_cell_length_b   29.89204000
_cell_length_c   9.91944836
_cell_angle_alpha   90.00000000
_cell_angle_beta   90.00000000
_cell_angle_gamma   90.00000000
_symmetry_Int_Tables_number   1
_chemical_formula_structural   H5C14
_chemical_formula_sum   'H20 C56'
_cell_volume   2965.12547255
_cell_formula_units_Z   4
loop_
 _symmetry_equiv_pos_site_id
 _symmetry_equiv_pos_as_xyz
  1  'x, y, z'
loop_
 _atom_site_type_symbol
 _atom_site_label
 _atom_site_symmetry_multiplicity
 _atom_site_fract_x
 _atom_site_fract_y
 _atom_site_fract_z
 _atom_site_occupancy
  C  C0  1  0.50000007  0.83388356  0.49750889  1
  C  C1  1  0.49999996  0.84089035  0.74205073  1
  C  C2  1  0.50000018  0.16486804  0.54798845  1
  C  C3  1  0.50000046  0.15744673  0.79028423  1
  C  C4  1  0.50000036  0.18525235  0.67315190  1
  C  C5  1  0.49999896  0.17678455  0.91601118  1
  C  C6  1  0.50000027  0.23433915  0.69440300  1
  C  C7  1  0.49999767  0.22343578  0.93446989  1
  C  C8  1  0.50000051  0.26144840  0.58166578  1
  C  C9  1  0.49999941  0.25490849  0.82696596  1
  C  C10  1  0.50000210  0.31056509  0.08997028  1
  C  C11  1  0.50000103  0.31080580  0.33578217  1
  C  C12  1  0.50000018  0.30791047  0.58629832  1
  C  C13  1  0.49999996  0.30435294  0.83611486  1
  C  C14  1  0.50000100  0.33402868  0.21249101  1
  C  C15  1  0.50000035  0.33246754  0.46017556  1
  C  C16  1  0.50000000  0.33024684  0.71415887  1
  C  C17  1  0.50000052  0.33023417  0.96249227  1
  C  C18  1  0.50000006  0.38135957  0.21224738  1
  C  C19  1  0.50000008  0.38025810  0.46289246  1
  C  C20  1  0.50000000  0.37907827  0.71378606  1
  C  C21  1  0.49999992  0.37894965  0.96142391  1
  C  C22  1  0.49999998  0.40356351  0.08522560  1
  C  C23  1  0.49999999  0.40390497  0.33870671  1
  C  C24  1  0.50000000  0.40353355  0.58950580  1
  C  C25  1  0.49999992  0.40336116  0.83731181  1
  C  C26  1  0.49999998  0.45155289  0.08568781  1
  C  C27  1  0.49999999  0.45129253  0.33909674  1
  C  C28  1  0.49999993  0.45161357  0.58996832  1
  C  C29  1  0.50000003  0.45172147  0.83773996  1
  C  C30  1  0.49999993  0.47384046  0.21283080  1
  C  C31  1  0.49999991  0.47498832  0.46350246  1
  C  C32  1  0.49999993  0.47602522  0.71453330  1
  C  C33  1  0.50000005  0.47607887  0.96209808  1
  C  C34  1  0.49999900  0.52109955  0.21356588  1
  C  C35  1  0.49999973  0.52274071  0.46096347  1
  C  C36  1  0.49999995  0.52480099  0.71541537  1
  C  C37  1  0.49999939  0.52467953  0.96379297  1
  C  C38  1  0.49999770  0.54437949  0.09100462  1
  C  C39  1  0.49999912  0.54442432  0.33702728  1
  C  C40  1  0.49999986  0.54733213  0.58781913  1
  C  C41  1  0.49999999  0.55062188  0.83747537  1
  C  C42  1  0.49999959  0.59351643  0.58383202  1
  C  C43  1  0.50000061  0.59975758  0.82896719  1
  C  C44  1  0.49999982  0.62064615  0.69815199  1
  C  C45  1  0.50000237  0.63167941  0.93737468  1
  C  C46  1  0.49999969  0.66911298  0.67898156  1
  C  C47  1  0.50000115  0.67734708  0.92017009  1
  C  C48  1  0.49999981  0.68917497  0.54887629  1
  C  C49  1  0.49999967  0.69814323  0.79196378  1
  C  C50  1  0.49999989  0.73502628  0.53227327  1
  C  C51  1  0.49999955  0.74637167  0.77559186  1
  C  C52  1  0.49999977  0.76491836  0.64260752  1
  C  C53  1  0.49999951  0.77567887  0.88774978  1
  C  C54  1  0.49999994  0.81360332  0.62323832  1
  C  C55  1  0.49999972  0.82217226  0.86987303  1
  H  H56  1  0.50000022  0.87046468  0.48963777  1
  H  H57  1  0.50000009  0.87735865  0.72977128  1
  H  H58  1  0.50000029  0.12823226  0.54232650  1
  H  H59  1  0.50000095  0.12102620  0.77836345  1
  H  H60  1  0.50000004  0.81516333  0.40277424  1
  H  H61  1  0.49999991  0.18275207  0.45180612  1
  H  H62  1  0.50000081  0.24508340  0.48388830  1
  H  H63  1  0.50000527  0.27486495  0.10203791  1
  H  H64  1  0.50000136  0.27433930  0.32905065  1
  H  H65  1  0.49999438  0.58004906  0.10313901  1
  H  H66  1  0.49999893  0.58089843  0.33004674  1
  H  H67  1  0.49999931  0.60982522  0.48616970  1
  H  H68  1  0.50000003  0.66877872  0.45749132  1
  H  H69  1  0.50000011  0.74833682  0.42953646  1
  H  H70  1  0.49999835  0.15560619  0.00622515  1
  H  H71  1  0.49999412  0.23266508  0.03957024  1
  H  H72  1  0.50000603  0.62246057  0.04250167  1
  H  H73  1  0.50000215  0.69788255  0.01148106  1
  H  H74  1  0.49999937  0.76235462  -0.00960614  1
  H  H75  1  0.49999975  0.84404468  -0.04146745  1
