# generated using pymatgen
data_H3C8
_symmetry_space_group_name_H-M   'P 1'
_cell_length_a   10.00000000
_cell_length_b   21.36688000
_cell_length_c   9.91726572
_cell_angle_alpha   90.00000000
_cell_angle_beta   90.00000000
_cell_angle_gamma   90.00000000
_symmetry_Int_Tables_number   1
_chemical_formula_structural   H3C8
_chemical_formula_sum   'H12 C32'
_cell_volume   2119.01026629
_cell_formula_units_Z   4
loop_
 _symmetry_equiv_pos_site_id
 _symmetry_equiv_pos_as_xyz
  1  'x, y, z'
loop_
 _atom_site_type_symbol
 _atom_site_label
 _atom_site_symmetry_multiplicity
 _atom_site_fract_x
 _atom_site_fract_y
 _atom_site_fract_z
 _atom_site_occupancy
  C  C0  1  0.50000008  0.26440626  0.59288415  1
  C  C1  1  0.50000023  0.28245116  0.82469495  1
  C  C2  1  0.50000006  0.31030587  0.69193916  1
  C  C3  1  0.50000014  0.31603957  0.94058634  1
  C  C4  1  0.49999996  0.38542125  0.18871332  1
  C  C5  1  0.50000001  0.38584994  0.43625793  1
  C  C6  1  0.49999995  0.37978118  0.68673335  1
  C  C7  1  0.49999994  0.38251998  0.93845438  1
  C  C8  1  0.50000000  0.41616407  0.06365382  1
  C  C9  1  0.50000000  0.41761116  0.31256872  1
  C  C10  1  0.49999992  0.41536354  0.56239519  1
  C  C11  1  0.49999993  0.41434092  0.81105719  1
  C  C12  1  0.50000004  0.48351627  0.06189831  1
  C  C13  1  0.49999999  0.48422677  0.31281587  1
  C  C14  1  0.49999992  0.48346689  0.56361136  1
  C  C15  1  0.50000000  0.48276310  0.81152547  1
  C  C16  1  0.50000000  0.51577161  0.18718060  1
  C  C17  1  0.49999994  0.51648342  0.43809918  1
  C  C18  1  0.50000001  0.51723499  0.68847335  1
  C  C19  1  0.50000008  0.51653237  0.93638450  1
  C  C20  1  0.50000000  0.58238700  0.18742905  1
  C  C21  1  0.49999999  0.58383714  0.43634297  1
  C  C22  1  0.50000007  0.58565751  0.68894046  1
  C  C23  1  0.50000010  0.58463523  0.93760267  1
  C  C24  1  0.49999999  0.61414835  0.06373771  1
  C  C25  1  0.50000005  0.61457915  0.31128082  1
  C  C26  1  0.50000006  0.61747926  0.56154615  1
  C  C27  1  0.50000007  0.62021741  0.81326844  1
  C  C28  1  0.49999988  0.68395919  0.55940473  1
  C  C29  1  0.49999994  0.68969310  0.80806121  1
  C  C30  1  0.49999979  0.71755081  0.67531470  1
  C  C31  1  0.49999988  0.73559444  0.90711271  1
  H  H32  1  0.50000015  0.21575556  0.62824754  1
  H  H33  1  0.50000054  0.23122316  0.82970014  1
  H  H34  1  0.49999947  0.76877531  0.67033864  1
  H  H35  1  0.49999979  0.78424989  0.87177988  1
  H  H36  1  0.50000004  0.26850673  0.48380487  1
  H  H37  1  0.49999973  0.33432736  0.19408332  1
  H  H38  1  0.50000012  0.33549098  0.42968335  1
  H  H39  1  0.49999989  0.66450753  0.07031406  1
  H  H40  1  0.50000031  0.66567318  0.30589601  1
  H  H41  1  0.49999967  0.70916025  0.46369486  1
  H  H42  1  0.50000034  0.29083466  0.03629664  1
  H  H43  1  0.49999992  0.73150647  0.01619195  1
