# generated using pymatgen
data_H3C10
_symmetry_space_group_name_H-M   'P 1'
_cell_length_a   10.00000000
_cell_length_b   21.36688000
_cell_length_c   9.89445267
_cell_angle_alpha   90.00000000
_cell_angle_beta   90.00000000
_cell_angle_gamma   90.00000000
_symmetry_Int_Tables_number   1
_chemical_formula_structural   H3C10
_chemical_formula_sum   'H12 C40'
_cell_volume   2114.13582766
_cell_formula_units_Z   4
loop_
 _symmetry_equiv_pos_site_id
 _symmetry_equiv_pos_as_xyz
  1  'x, y, z'
loop_
 _atom_site_type_symbol
 _atom_site_label
 _atom_site_symmetry_multiplicity
 _atom_site_fract_x
 _atom_site_fract_y
 _atom_site_fract_z
 _atom_site_occupancy
  C  C0  1  0.49999953  0.76589319  0.53251232  1
  C  C1  1  0.50000009  0.77558957  0.77478211  1
  C  C2  1  0.49999695  0.23123013  0.07106048  1
  C  C3  1  0.49999859  0.23133779  0.32169084  1
  C  C4  1  0.49999802  0.23140062  0.57195658  1
  C  C5  1  0.49999620  0.23145673  0.82125376  1
  C  C6  1  0.49999886  0.26303573  0.19611063  1
  C  C7  1  0.49999934  0.26314041  0.44682839  1
  C  C8  1  0.49999804  0.26351887  0.69660076  1
  C  C9  1  0.49999760  0.26324954  0.94616163  1
  C  C10  1  0.50000070  0.33068541  0.19564926  1
  C  C11  1  0.50000080  0.33085629  0.44688165  1
  C  C12  1  0.50000024  0.33138455  0.69654294  1
  C  C13  1  0.50000019  0.33101182  0.94562607  1
  C  C14  1  0.50000135  0.36382141  0.07012215  1
  C  C15  1  0.50000149  0.36317488  0.32148224  1
  C  C16  1  0.50000121  0.36455839  0.57184648  1
  C  C17  1  0.50000108  0.36464127  0.82098515  1
  C  C18  1  0.50000231  0.43107302  0.06919919  1
  C  C19  1  0.50000196  0.42998423  0.32148908  1
  C  C20  1  0.50000189  0.43186495  0.57209160  1
  C  C21  1  0.50000225  0.43213227  0.82069910  1
  C  C22  1  0.50000207  0.46206270  0.19586716  1
  C  C23  1  0.50000168  0.46381379  0.44547786  1
  C  C24  1  0.50000213  0.46592757  0.69681337  1
  C  C25  1  0.50000244  0.46573282  0.94500581  1
  C  C26  1  0.50000128  0.52831482  0.19602841  1
  C  C27  1  0.50000083  0.53081868  0.44312271  1
  C  C28  1  0.50000164  0.53408462  0.69718053  1
  C  C29  1  0.50000188  0.53389049  0.94588286  1
  C  C30  1  0.50000094  0.56117657  0.07361639  1
  C  C31  1  0.50000043  0.56119068  0.31881224  1
  C  C32  1  0.50000066  0.56525288  0.56922808  1
  C  C33  1  0.50000155  0.57006852  0.81953938  1
  C  C34  1  0.49999983  0.63034146  0.56468770  1
  C  C35  1  0.50000088  0.63921223  0.81072482  1
  C  C36  1  0.50000019  0.66811361  0.67786257  1
  C  C37  1  0.50000074  0.68309185  0.91848810  1
  C  C38  1  0.49999997  0.73680829  0.65722086  1
  C  C39  1  0.50000033  0.74847442  0.90056088  1
  H  H40  1  0.49999925  0.81717414  0.52873634  1
  H  H41  1  0.50000005  0.82652223  0.76217861  1
  H  H42  1  0.49999522  0.17986864  0.07090438  1
  H  H43  1  0.49999758  0.17994967  0.32195330  1
  H  H44  1  0.49999683  0.18003315  0.57246992  1
  H  H45  1  0.49999403  0.18012035  0.82112752  1
  H  H46  1  0.49999932  0.74156003  0.43532790  1
  H  H47  1  0.49999938  0.61100369  0.08718949  1
  H  H48  1  0.49999967  0.61222011  0.31119246  1
  H  H49  1  0.49999911  0.65315153  0.46654641  1
  H  H50  1  0.50000118  0.66992095  0.02361525  1
  H  H51  1  0.50000021  0.77809005  -0.00893372  1
