# generated using pymatgen
data_H9C26
_symmetry_space_group_name_H-M   'P 1'
_cell_length_a   10.00000000
_cell_length_b   29.89204000
_cell_length_c   9.91756367
_cell_angle_alpha   90.00000000
_cell_angle_beta   90.00000000
_cell_angle_gamma   90.00000000
_symmetry_Int_Tables_number   1
_chemical_formula_structural   H9C26
_chemical_formula_sum   'H18 C52'
_cell_volume   2964.56209802
_cell_formula_units_Z   2
loop_
 _symmetry_equiv_pos_site_id
 _symmetry_equiv_pos_as_xyz
  1  'x, y, z'
loop_
 _atom_site_type_symbol
 _atom_site_label
 _atom_site_symmetry_multiplicity
 _atom_site_fract_x
 _atom_site_fract_y
 _atom_site_fract_z
 _atom_site_occupancy
  C  C0  1  0.50000003  0.20146342  0.49699262  1
  C  C1  1  0.49999996  0.19526328  0.74138682  1
  C  C2  1  0.49999991  0.22224848  0.62183247  1
  C  C3  1  0.49999981  0.21433427  0.86874095  1
  C  C4  1  0.49999976  0.27100281  0.63933976  1
  C  C5  1  0.49999959  0.26088492  0.88488141  1
  C  C6  1  0.49999989  0.30069061  0.52841381  1
  C  C7  1  0.49999957  0.28984371  0.77187868  1
  C  C8  1  0.49999986  0.34661123  0.54432197  1
  C  C9  1  0.49999966  0.33808030  0.78746214  1
  C  C10  1  0.49999973  0.36697766  0.67410299  1
  C  C11  1  0.50000097  0.35895013  0.91555111  1
  C  C12  1  0.49999988  0.41549774  0.69311089  1
  C  C13  1  0.50000206  0.40459703  0.93232361  1
  C  C14  1  0.49999972  0.44274338  0.57916147  1
  C  C15  1  0.50000056  0.43642643  0.82404827  1
  C  C16  1  0.49999798  0.49171079  0.08880923  1
  C  C17  1  0.49999923  0.49198603  0.33419487  1
  C  C18  1  0.49999998  0.48895554  0.58445205  1
  C  C19  1  0.50000007  0.48552012  0.83411342  1
  C  C20  1  0.49999920  0.51526709  0.21100007  1
  C  C21  1  0.49999987  0.51368468  0.45802610  1
  C  C22  1  0.50000008  0.51137503  0.71221931  1
  C  C23  1  0.49999957  0.51131097  0.96127888  1
  C  C24  1  0.50000019  0.56253629  0.21075422  1
  C  C25  1  0.50000013  0.56144811  0.46105734  1
  C  C26  1  0.50000013  0.56008307  0.71200252  1
  C  C27  1  0.50000030  0.55999291  0.96000262  1
  C  C28  1  0.50000028  0.58468980  0.08381615  1
  C  C29  1  0.50000030  0.58523348  0.33689474  1
  C  C30  1  0.50000014  0.58463090  0.58765863  1
  C  C31  1  0.50000032  0.58429606  0.83563470  1
  C  C32  1  0.50000025  0.63270246  0.08433239  1
  C  C33  1  0.50000026  0.63269697  0.33726572  1
  C  C34  1  0.50000015  0.63277693  0.58785079  1
  C  C35  1  0.50000026  0.63273450  0.83587308  1
  C  C36  1  0.50000019  0.65532450  0.21101785  1
  C  C37  1  0.50000013  0.65623630  0.46180692  1
  C  C38  1  0.50000012  0.65716397  0.71236371  1
  C  C39  1  0.50000020  0.65691965  0.96033708  1
  C  C40  1  0.49999994  0.70290256  0.21165359  1
  C  C41  1  0.49999999  0.70424414  0.46019755  1
  C  C42  1  0.50000003  0.70593405  0.71292417  1
  C  C43  1  0.50000001  0.70541918  0.96195335  1
  C  C44  1  0.49999976  0.72608512  0.08851542  1
  C  C45  1  0.49999987  0.72606452  0.33524271  1
  C  C46  1  0.49999995  0.72855978  0.58541024  1
  C  C47  1  0.50000003  0.73076459  0.83711696  1
  C  C48  1  0.49999984  0.77603453  0.58298249  1
  C  C49  1  0.50000006  0.78031833  0.83166228  1
  C  C50  1  0.49999984  0.80018428  0.69894996  1
  C  C51  1  0.50000037  0.81301335  0.93128865  1
  H  H52  1  0.50000016  0.16485953  0.49076739  1
  H  H53  1  0.50000011  0.15876691  0.72976658  1
  H  H54  1  0.49999982  0.83679953  0.69366901  1
  H  H55  1  0.50000021  0.84790728  0.89688913  1
  H  H56  1  0.50000003  0.21985868  0.40174836  1
  H  H57  1  0.50000009  0.28710646  0.42592097  1
  H  H58  1  0.50000006  0.36688889  0.45267038  1
  H  H59  1  0.49999953  0.42673855  0.48102770  1
  H  H60  1  0.49999487  0.45605211  0.10271604  1
  H  H61  1  0.49999897  0.45550131  0.32741326  1
  H  H62  1  0.49999933  0.76203932  0.09666037  1
  H  H63  1  0.49999977  0.76256179  0.32976883  1
  H  H64  1  0.49999979  0.79399522  0.48719551  1
  H  H65  1  0.49999987  0.19283280  -0.04169158  1
  H  H66  1  0.49999945  0.27462052  -0.01299713  1
  H  H67  1  0.50000181  0.33849104  0.00698608  1
  H  H68  1  0.50000528  0.41429908  0.03699478  1
  H  H69  1  0.50000091  0.80965751  0.04028558  1
