# generated using pymatgen
data_H7C18
_symmetry_space_group_name_H-M   'P 1'
_cell_length_a   10.00000000
_cell_length_b   21.36688000
_cell_length_c   9.90434057
_cell_angle_alpha   90.00000000
_cell_angle_beta   90.00000000
_cell_angle_gamma   90.00000000
_symmetry_Int_Tables_number   1
_chemical_formula_structural   H7C18
_chemical_formula_sum   'H14 C36'
_cell_volume   2116.24856459
_cell_formula_units_Z   2
loop_
 _symmetry_equiv_pos_site_id
 _symmetry_equiv_pos_as_xyz
  1  'x, y, z'
loop_
 _atom_site_type_symbol
 _atom_site_label
 _atom_site_symmetry_multiplicity
 _atom_site_fract_x
 _atom_site_fract_y
 _atom_site_fract_z
 _atom_site_occupancy
  C  C0  1  0.50000044  0.78515475  0.62286735  1
  C  C1  1  0.49999979  0.76766417  0.86524032  1
  C  C2  1  0.49999675  0.22966312  0.04304091  1
  C  C3  1  0.49999736  0.22923311  0.29537478  1
  C  C4  1  0.49999635  0.23029751  0.54594658  1
  C  C5  1  0.49999536  0.23105655  0.79406158  1
  C  C6  1  0.49999818  0.26037987  0.16913245  1
  C  C7  1  0.49999808  0.26140504  0.42067018  1
  C  C8  1  0.49999720  0.26316931  0.66984923  1
  C  C9  1  0.49999732  0.26271483  0.91873811  1
  C  C10  1  0.50000012  0.32798488  0.16887207  1
  C  C11  1  0.50000017  0.32929653  0.42119315  1
  C  C12  1  0.49999976  0.33108157  0.66984907  1
  C  C13  1  0.49999977  0.33055595  0.91827128  1
  C  C14  1  0.50000086  0.36204493  0.04506274  1
  C  C15  1  0.50000105  0.36011400  0.29434890  1
  C  C16  1  0.50000085  0.36414627  0.54495816  1
  C  C17  1  0.50000062  0.36455857  0.79363302  1
  C  C18  1  0.50000196  0.42917840  0.04717928  1
  C  C19  1  0.50000213  0.42653933  0.29397217  1
  C  C20  1  0.50000178  0.43241097  0.54358425  1
  C  C21  1  0.50000178  0.43272734  0.79261720  1
  C  C22  1  0.50000221  0.45942216  0.17108964  1
  C  C23  1  0.50000213  0.45960280  0.41601349  1
  C  C24  1  0.50000180  0.46864516  0.67027302  1
  C  C25  1  0.50000219  0.46392040  0.92049723  1
  C  C26  1  0.50000178  0.53749362  0.67924566  1
  C  C27  1  0.50000254  0.52872890  0.92471818  1
  C  C28  1  0.50000139  0.58176598  0.57084089  1
  C  C29  1  0.50000208  0.56678027  0.81062187  1
  C  C30  1  0.50000114  0.64595984  0.58773838  1
  C  C31  1  0.50000166  0.63495127  0.82965344  1
  C  C32  1  0.50000115  0.67527278  0.71478278  1
  C  C33  1  0.50000155  0.66269403  0.95924752  1
  C  C34  1  0.50000042  0.74356708  0.73012452  1
  C  C35  1  0.50000051  0.72799919  0.97548636  1
  H  H36  1  0.49999990  0.83559812  0.64308124  1
  H  H37  1  0.49999887  0.81858811  0.87916748  1
  H  H38  1  0.49999529  0.17830910  0.03994916  1
  H  H39  1  0.49999616  0.17785205  0.29673403  1
  H  H40  1  0.49999430  0.17895211  0.54838855  1
  H  H41  1  0.49999252  0.17971165  0.79382797  1
  H  H42  1  0.50000130  0.77067680  0.51698993  1
  H  H43  1  0.50000218  0.51046778  0.17816097  1
  H  H44  1  0.50000186  0.50947840  0.40212829  1
  H  H45  1  0.50000118  0.56846995  0.46580390  1
  H  H46  1  0.50000080  0.67446763  0.49582580  1
  H  H47  1  0.50000293  0.55143512  0.02271649  1
  H  H48  1  0.50000227  0.63406506  0.05063606  1
  H  H49  1  0.50000023  0.74753715  0.07779439  1
