# generated using pymatgen
data_HC2
_symmetry_space_group_name_H-M   'P 1'
_cell_length_a   10.00000000
_cell_length_b   21.36688000
_cell_length_c   9.96195701
_cell_angle_alpha   90.00000000
_cell_angle_beta   90.00000000
_cell_angle_gamma   90.00000000
_symmetry_Int_Tables_number   1
_chemical_formula_structural   HC2
_chemical_formula_sum   'H14 C28'
_cell_volume   2128.55940070
_cell_formula_units_Z   14
loop_
 _symmetry_equiv_pos_site_id
 _symmetry_equiv_pos_as_xyz
  1  'x, y, z'
loop_
 _atom_site_type_symbol
 _atom_site_label
 _atom_site_symmetry_multiplicity
 _atom_site_fract_x
 _atom_site_fract_y
 _atom_site_fract_z
 _atom_site_occupancy
  C  C0  1  0.49999964  0.23456712  0.53883730  1
  C  C1  1  0.50000068  0.22375122  0.77955431  1
  C  C2  1  0.50000026  0.26299746  0.66325581  1
  C  C3  1  0.50000020  0.25050824  0.90465026  1
  C  C4  1  0.50000030  0.33166668  0.68498633  1
  C  C5  1  0.49999940  0.31599566  0.92343151  1
  C  C6  1  0.50000049  0.36966246  0.57317684  1
  C  C7  1  0.49999984  0.36027743  0.81739375  1
  C  C8  1  0.50000039  0.43741046  0.07852052  1
  C  C9  1  0.49999979  0.43657948  0.32589439  1
  C  C10  1  0.49999996  0.43490649  0.57688011  1
  C  C11  1  0.49999989  0.42983391  0.82602446  1
  C  C12  1  0.49999998  0.46862520  0.20245218  1
  C  C13  1  0.49999978  0.46776776  0.44911195  1
  C  C14  1  0.49999981  0.46623294  0.70453219  1
  C  C15  1  0.50000003  0.46571631  0.95168593  1
  C  C16  1  0.49999989  0.53528521  0.20218211  1
  C  C17  1  0.49999980  0.53507612  0.44946167  1
  C  C18  1  0.49999975  0.53515204  0.70419416  1
  C  C19  1  0.49999986  0.53457046  0.95142390  1
  C  C20  1  0.49999990  0.56508709  0.07644028  1
  C  C21  1  0.50000000  0.56700899  0.32599247  1
  C  C22  1  0.49999975  0.56706017  0.57685369  1
  C  C23  1  0.49999982  0.57008358  0.82736172  1
  C  C24  1  0.49999974  0.63350874  0.57511496  1
  C  C25  1  0.50000006  0.63974913  0.82205998  1
  C  C26  1  0.50000009  0.66741650  0.68985703  1
  C  C27  1  0.50000024  0.68601395  0.91989641  1
  H  H28  1  0.49999968  0.18334423  0.53305201  1
  H  H29  1  0.50000103  0.17279666  0.76678736  1
  H  H30  1  0.50000042  0.71858312  0.68405203  1
  H  H31  1  0.50000049  0.73455771  0.88387085  1
  H  H32  1  0.49999891  0.25957132  0.44306779  1
  H  H33  1  0.50000099  0.34680915  0.47574632  1
  H  H34  1  0.50000133  0.38734449  0.08818982  1
  H  H35  1  0.49999964  0.38550000  0.32092936  1
  H  H36  1  0.49999993  0.61547705  0.07926518  1
  H  H37  1  0.50000036  0.61809110  0.32237964  1
  H  H38  1  0.49999960  0.65850530  0.47971031  1
  H  H39  1  0.50000028  0.22084996  -0.00547283  1
  H  H40  1  0.49999799  0.32807574  0.02864864  1
  H  H41  1  0.50000003  0.68227812  0.02854729  1
