# generated using pymatgen
data_H5C22
_symmetry_space_group_name_H-M   'P 1'
_cell_length_a   10.00000000
_cell_length_b   21.36688000
_cell_length_c   9.88177176
_cell_angle_alpha   90.00000000
_cell_angle_beta   90.00000000
_cell_angle_gamma   90.00000000
_symmetry_Int_Tables_number   1
_chemical_formula_structural   H5C22
_chemical_formula_sum   'H10 C44'
_cell_volume   2111.42631361
_cell_formula_units_Z   2
loop_
 _symmetry_equiv_pos_site_id
 _symmetry_equiv_pos_as_xyz
  1  'x, y, z'
loop_
 _atom_site_type_symbol
 _atom_site_label
 _atom_site_symmetry_multiplicity
 _atom_site_fract_x
 _atom_site_fract_y
 _atom_site_fract_z
 _atom_site_occupancy
  C  C0  1  0.49999993  0.78464134  0.58698604  1
  C  C1  1  0.49999977  0.76671331  0.82029767  1
  C  C2  1  0.50000009  0.23185198  0.06125416  1
  C  C3  1  0.49999945  0.23182579  0.31133291  1
  C  C4  1  0.49999921  0.23178004  0.56137287  1
  C  C5  1  0.49999953  0.23178925  0.81129553  1
  C  C6  1  0.49999969  0.26375827  0.18619179  1
  C  C7  1  0.49999921  0.26369209  0.43634980  1
  C  C8  1  0.49999916  0.26370813  0.68629014  1
  C  C9  1  0.49999995  0.26374903  0.93614091  1
  C  C10  1  0.49999982  0.33149553  0.18578033  1
  C  C11  1  0.49999961  0.33144598  0.43609032  1
  C  C12  1  0.49999962  0.33147126  0.68606797  1
  C  C13  1  0.50000004  0.33145965  0.93575684  1
  C  C14  1  0.50000011  0.36457002  0.06046925  1
  C  C15  1  0.49999994  0.36449429  0.31089389  1
  C  C16  1  0.49999999  0.36461636  0.56102315  1
  C  C17  1  0.50000017  0.36472610  0.81072121  1
  C  C18  1  0.50000029  0.43173589  0.05960995  1
  C  C19  1  0.50000033  0.43158909  0.31049601  1
  C  C20  1  0.50000065  0.43179253  0.56064814  1
  C  C21  1  0.50000070  0.43204755  0.80995869  1
  C  C22  1  0.50000028  0.46445545  0.18470440  1
  C  C23  1  0.50000057  0.46480146  0.43562408  1
  C  C24  1  0.50000092  0.46546874  0.68520191  1
  C  C25  1  0.50000048  0.46549518  0.93447320  1
  C  C26  1  0.50000002  0.53134576  0.18381986  1
  C  C27  1  0.50000037  0.53187955  0.43531599  1
  C  C28  1  0.50000068  0.53291069  0.68467363  1
  C  C29  1  0.50000027  0.53285857  0.93353191  1
  C  C30  1  0.49999991  0.56521428  0.05933849  1
  C  C31  1  0.50000008  0.56370377  0.30916377  1
  C  C32  1  0.50000036  0.56610027  0.55963570  1
  C  C33  1  0.50000030  0.56695770  0.80845970  1
  C  C34  1  0.49999980  0.63249471  0.06048363  1
  C  C35  1  0.50000022  0.63039220  0.30850147  1
  C  C36  1  0.50000010  0.63393699  0.55814151  1
  C  C37  1  0.49999985  0.63506532  0.80744644  1
  C  C38  1  0.50000025  0.66317007  0.18530503  1
  C  C39  1  0.50000027  0.66287524  0.43153354  1
  C  C40  1  0.49999992  0.66957010  0.68259262  1
  C  C41  1  0.49999960  0.66663183  0.93519342  1
  C  C42  1  0.49999991  0.73890546  0.68707917  1
  C  C43  1  0.49999958  0.73311074  0.93688286  1
  H  H44  1  0.49999984  0.83344407  0.62160064  1
  H  H45  1  0.49999981  0.81794743  0.82519302  1
  H  H46  1  0.50000035  0.18051538  0.06160587  1
  H  H47  1  0.49999950  0.18047299  0.31172520  1
  H  H48  1  0.49999961  0.18045053  0.56191743  1
  H  H49  1  0.49999985  0.18044617  0.81166356  1
  H  H50  1  0.49999985  0.78017326  0.47752088  1
  H  H51  1  0.50000045  0.71425925  0.19085978  1
  H  H52  1  0.50000020  0.71313852  0.42329695  1
  H  H53  1  0.49999955  0.75862328  0.03248673  1
