# generated using pymatgen
data_H5C34
_symmetry_space_group_name_H-M   'P 1'
_cell_length_a   10.00000000
_cell_length_b   29.89204000
_cell_length_c   9.88285726
_cell_angle_alpha   90.00000000
_cell_angle_beta   90.00000000
_cell_angle_gamma   90.00000000
_symmetry_Int_Tables_number   1
_chemical_formula_structural   H5C34
_chemical_formula_sum   'H10 C68'
_cell_volume   2954.18764489
_cell_formula_units_Z   2
loop_
 _symmetry_equiv_pos_site_id
 _symmetry_equiv_pos_as_xyz
  1  'x, y, z'
loop_
 _atom_site_type_symbol
 _atom_site_label
 _atom_site_symmetry_multiplicity
 _atom_site_fract_x
 _atom_site_fract_y
 _atom_site_fract_z
 _atom_site_occupancy
  C  C0  1  0.49999997  0.18906475  0.58783594  1
  C  C1  1  0.50000001  0.20206927  0.82075501  1
  C  C2  1  0.50000000  0.22186721  0.68762006  1
  C  C3  1  0.50000003  0.22609439  0.93731436  1
  C  C4  1  0.49999999  0.27599319  0.18535077  1
  C  C5  1  0.50000002  0.27603556  0.43173157  1
  C  C6  1  0.50000000  0.27135459  0.68287467  1
  C  C7  1  0.50000001  0.27353029  0.93544102  1
  C  C8  1  0.50000000  0.29795231  0.06063472  1
  C  C9  1  0.50000000  0.29932036  0.30868253  1
  C  C10  1  0.50000000  0.29679477  0.55834299  1
  C  C11  1  0.50000000  0.29604268  0.80766163  1
  C  C12  1  0.50000000  0.34591953  0.05952913  1
  C  C13  1  0.50000000  0.34690377  0.30922520  1
  C  C14  1  0.50000000  0.34514954  0.55983688  1
  C  C15  1  0.50000000  0.34457055  0.80867345  1
  C  C16  1  0.50000000  0.37000777  0.18393237  1
  C  C17  1  0.50000000  0.36959240  0.43545216  1
  C  C18  1  0.49999999  0.36886092  0.68478158  1
  C  C19  1  0.50000000  0.36894211  0.93367735  1
  C  C20  1  0.50000000  0.41766195  0.18453649  1
  C  C21  1  0.50000000  0.41741142  0.43558927  1
  C  C22  1  0.50000000  0.41692309  0.68514685  1
  C  C23  1  0.50000000  0.41689149  0.93441246  1
  C  C24  1  0.50000000  0.44103289  0.05945364  1
  C  C25  1  0.50000000  0.44114736  0.31038904  1
  C  C26  1  0.50000000  0.44099812  0.56055483  1
  C  C27  1  0.50000000  0.44081712  0.80987467  1
  C  C28  1  0.50000000  0.48879769  0.06034137  1
  C  C29  1  0.50000000  0.48887306  0.31074592  1
  C  C30  1  0.50000000  0.48878462  0.56084200  1
  C  C31  1  0.50000000  0.48868610  0.81053188  1
  C  C32  1  0.50000000  0.51256110  0.18563845  1
  C  C33  1  0.50000000  0.51258136  0.43594471  1
  C  C34  1  0.50000000  0.51256473  0.68589049  1
  C  C35  1  0.50000000  0.51256689  0.93558362  1
  C  C36  1  0.50000000  0.56033129  0.18617080  1
  C  C37  1  0.50000000  0.56034611  0.43630314  1
  C  C38  1  0.50000000  0.56035572  0.68627575  1
  C  C39  1  0.50000000  0.56033998  0.93615836  1
  C  C40  1  0.50000000  0.58411974  0.06131652  1
  C  C41  1  0.50000000  0.58409348  0.31136063  1
  C  C42  1  0.50000000  0.58412235  0.56138772  1
  C  C43  1  0.50000000  0.58413537  0.81135596  1
  C  C44  1  0.50000000  0.63193776  0.06173869  1
  C  C45  1  0.50000000  0.63189686  0.31175704  1
  C  C46  1  0.50000000  0.63191350  0.56174993  1
  C  C47  1  0.50000000  0.63194299  0.81175573  1
  C  C48  1  0.50000000  0.65567669  0.18686790  1
  C  C49  1  0.50000000  0.65566469  0.43684145  1
  C  C50  1  0.50000000  0.65568783  0.68683643  1
  C  C51  1  0.50000000  0.65571272  0.93685157  1
  C  C52  1  0.50000000  0.70358823  0.18714295  1
  C  C53  1  0.50000000  0.70357835  0.43711851  1
  C  C54  1  0.50000000  0.70359810  0.68709075  1
  C  C55  1  0.50000000  0.70361603  0.93710974  1
  C  C56  1  0.50000000  0.72729413  0.06220888  1
  C  C57  1  0.50000000  0.72728287  0.31221007  1
  C  C58  1  0.50000000  0.72728667  0.56215109  1
  C  C59  1  0.50000000  0.72729899  0.81214177  1
  C  C60  1  0.50000000  0.77567212  0.06234294  1
  C  C61  1  0.50000000  0.77566621  0.31234142  1
  C  C62  1  0.50000000  0.77566824  0.56231377  1
  C  C63  1  0.50000000  0.77567477  0.81231762  1
  C  C64  1  0.50000000  0.79848721  0.18736761  1
  C  C65  1  0.50000000  0.79849564  0.43735468  1
  C  C66  1  0.50000000  0.79849220  0.68734844  1
  C  C67  1  0.50000000  0.79849140  0.93736350  1
  H  H68  1  0.49999998  0.15428840  0.62331082  1
  H  H69  1  0.50000003  0.16546503  0.82562201  1
  H  H70  1  0.50000000  0.83518923  0.18745332  1
  H  H71  1  0.50000000  0.83519865  0.43739397  1
  H  H72  1  0.50000000  0.83519554  0.68741063  1
  H  H73  1  0.50000000  0.83519637  0.93745143  1
  H  H74  1  0.49999989  0.19209434  0.47833989  1
  H  H75  1  0.49999998  0.23949831  0.19051411  1
  H  H76  1  0.50000005  0.24007095  0.42403102  1
  H  H77  1  0.50000007  0.20796585  0.03299235  1
