# generated using pymatgen
data_HC2
_symmetry_space_group_name_H-M   'P 1'
_cell_length_a   10.00000000
_cell_length_b   29.89204000
_cell_length_c   9.97789670
_cell_angle_alpha   90.00000000
_cell_angle_beta   90.00000000
_cell_angle_gamma   90.00000000
_symmetry_Int_Tables_number   1
_chemical_formula_structural   HC2
_chemical_formula_sum   'H22 C44'
_cell_volume   2982.59687412
_cell_formula_units_Z   22
loop_
 _symmetry_equiv_pos_site_id
 _symmetry_equiv_pos_as_xyz
  1  'x, y, z'
loop_
 _atom_site_type_symbol
 _atom_site_label
 _atom_site_symmetry_multiplicity
 _atom_site_fract_x
 _atom_site_fract_y
 _atom_site_fract_z
 _atom_site_occupancy
  C  C0  1  0.50000944  0.18656630  0.54225974  1
  C  C1  1  0.50001953  0.19981899  0.77143686  1
  C  C2  1  0.50003471  0.21976557  0.63986526  1
  C  C3  1  0.50001330  0.22387689  0.88657437  1
  C  C4  1  0.50007892  0.27113662  0.13664579  1
  C  C5  1  0.50008417  0.27283054  0.38640387  1
  C  C6  1  0.50004573  0.26946090  0.63495441  1
  C  C7  1  0.50001325  0.27130660  0.88546110  1
  C  C8  1  0.50001453  0.29402355  0.01339540  1
  C  C9  1  0.50004201  0.29391012  0.26038564  1
  C  C10  1  0.50004882  0.29491015  0.51071705  1
  C  C11  1  0.50000744  0.29425783  0.75813048  1
  C  C12  1  0.49994592  0.34209475  0.01393683  1
  C  C13  1  0.49982659  0.34146976  0.25996330  1
  C  C14  1  0.49990011  0.34403893  0.51026475  1
  C  C15  1  0.49999743  0.34343472  0.75787384  1
  C  C16  1  0.49981891  0.36438435  0.13645231  1
  C  C17  1  0.49960226  0.36404966  0.38328818  1
  C  C18  1  0.49999871  0.36958291  0.63684936  1
  C  C19  1  0.49997147  0.36587534  0.88554286  1
  C  C20  1  0.50010537  0.41884229  0.64644395  1
  C  C21  1  0.49992635  0.41213411  0.88958403  1
  C  C22  1  0.50041833  0.45093657  0.53937115  1
  C  C23  1  0.49996821  0.43954906  0.77668077  1
  C  C24  1  0.50021888  0.49657976  0.55709614  1
  C  C25  1  0.49994871  0.48800752  0.79665338  1
  C  C26  1  0.49995656  0.51725957  0.68493038  1
  C  C27  1  0.49995900  0.50804994  0.92635608  1
  C  C28  1  0.49993842  0.56530270  0.70236304  1
  C  C29  1  0.49996940  0.55374039  0.94372883  1
  C  C30  1  0.49994880  0.59511219  0.59109726  1
  C  C31  1  0.49995763  0.58399398  0.83360383  1
  C  C32  1  0.49997457  0.64075539  0.60816153  1
  C  C33  1  0.49997900  0.63211230  0.85163220  1
  C  C34  1  0.49998603  0.66086324  0.73756354  1
  C  C35  1  0.49999269  0.65223605  0.98100006  1
  C  C36  1  0.49999802  0.70918823  0.75466243  1
  C  C37  1  0.50000242  0.69809584  0.99733018  1
  C  C38  1  0.50000026  0.73852072  0.64306725  1
  C  C39  1  0.50000195  0.72781221  0.88689043  1
  C  C40  1  0.50000235  0.78503730  0.66013512  1
  C  C41  1  0.50000318  0.77658746  0.90537964  1
  C  C42  1  0.50000292  0.80381993  0.78705825  1
  C  C43  1  0.50000261  0.79742281  1.02957568  1
  H  H44  1  0.50000092  0.15198061  0.57910848  1
  H  H45  1  0.50000263  0.16319376  0.77645045  1
  H  H46  1  0.50000239  0.84027493  0.79938100  1
  H  H47  1  0.50000220  0.83405907  1.03492430  1
  H  H48  1  0.49998194  0.18888074  0.43372255  1
  H  H49  1  0.50013739  0.23458355  0.14046661  1
  H  H50  1  0.50014024  0.23680945  0.38396982  1
  H  H51  1  0.49976148  0.40090501  0.14195048  1
  H  H52  1  0.49900512  0.39978623  0.37172828  1
  H  H53  1  0.50104597  0.44175986  0.43483198  1
  H  H54  1  0.50040218  0.51709317  0.46628949  1
  H  H55  1  0.49993327  0.58182962  0.48899643  1
  H  H56  1  0.49998482  0.66180569  0.51855085  1
  H  H57  1  0.49999809  0.72513374  0.54111855  1
  H  H58  1  0.50000179  0.80678764  0.57162363  1
  H  H59  1  0.49999587  0.20581616  -0.01849589  1
  H  H60  1  0.49988704  0.42820772  -0.01299167  1
  H  H61  1  0.49998288  0.48738967  0.01662139  1
  H  H62  1  0.49999513  0.56668661  0.04620177  1
  H  H63  1  0.49999293  0.63122279  0.07072389  1
  H  H64  1  0.50000876  0.71169796  0.09920086  1
  H  H65  1  0.50000206  0.77935032  0.12486020  1
