# generated using pymatgen
data_HC2
_symmetry_space_group_name_H-M   'P 1'
_cell_length_a   10.00000000
_cell_length_b   29.89204000
_cell_length_c   9.99470633
_cell_angle_alpha   90.00000000
_cell_angle_beta   90.00000000
_cell_angle_gamma   90.00000000
_symmetry_Int_Tables_number   1
_chemical_formula_structural   HC2
_chemical_formula_sum   'H24 C48'
_cell_volume   2987.62161519
_cell_formula_units_Z   24
loop_
 _symmetry_equiv_pos_site_id
 _symmetry_equiv_pos_as_xyz
  1  'x, y, z'
loop_
 _atom_site_type_symbol
 _atom_site_label
 _atom_site_symmetry_multiplicity
 _atom_site_fract_x
 _atom_site_fract_y
 _atom_site_fract_z
 _atom_site_occupancy
  C  C0  1  0.49999941  0.84488374  0.60543559  1
  C  C1  1  0.50000045  0.83817026  0.84807865  1
  C  C2  1  0.49999892  0.14920345  0.62561373  1
  C  C3  1  0.50000105  0.16411599  0.86476401  1
  C  C4  1  0.50000006  0.17993812  0.72931165  1
  C  C5  1  0.50000155  0.19360600  0.97141853  1
  C  C6  1  0.50000020  0.22855287  0.70913628  1
  C  C7  1  0.50000130  0.24000073  0.95051408  1
  C  C8  1  0.49999829  0.24835489  0.58135153  1
  C  C9  1  0.50000062  0.25838143  0.81984254  1
  C  C10  1  0.49999722  0.29408690  0.55997637  1
  C  C11  1  0.50000037  0.30669753  0.79551711  1
  C  C12  1  0.49999944  0.32685790  0.66466115  1
  C  C13  1  0.50000045  0.33452282  0.90653455  1
  C  C14  1  0.50000145  0.38075864  0.15165831  1
  C  C15  1  0.50000274  0.38108719  0.40060628  1
  C  C16  1  0.50000011  0.37623476  0.65357251  1
  C  C17  1  0.50000011  0.38061802  0.90134661  1
  C  C18  1  0.50000033  0.40392881  0.03012452  1
  C  C19  1  0.50000137  0.40301817  0.27579092  1
  C  C20  1  0.50000078  0.40175396  0.52671476  1
  C  C21  1  0.49999998  0.40278916  0.77349627  1
  C  C22  1  0.49999979  0.45183181  0.03001311  1
  C  C23  1  0.49999926  0.45038318  0.27567592  1
  C  C24  1  0.49999935  0.45100804  0.52646367  1
  C  C25  1  0.49999994  0.45201352  0.77323307  1
  C  C26  1  0.49999903  0.47396364  0.15299378  1
  C  C27  1  0.49999802  0.47155737  0.40073255  1
  C  C28  1  0.49999972  0.47740063  0.65174839  1
  C  C29  1  0.49999994  0.47522843  0.90032235  1
  C  C30  1  0.50000023  0.52661868  0.65868966  1
  C  C31  1  0.49999996  0.52160751  0.90211199  1
  C  C32  1  0.50000150  0.55769331  0.54919344  1
  C  C33  1  0.50000003  0.54843297  0.78740910  1
  C  C34  1  0.50000023  0.60327760  0.56213152  1
  C  C35  1  0.50000010  0.59724446  0.80221931  1
  C  C36  1  0.49999920  0.62507428  0.68736319  1
  C  C37  1  0.50000114  0.61954667  0.92847062  1
  C  C38  1  0.49999867  0.67320109  0.69703856  1
  C  C39  1  0.50000129  0.66565325  0.93887427  1
  C  C40  1  0.49999687  0.70034999  0.58033385  1
  C  C41  1  0.50000008  0.69422035  0.82471379  1
  C  C42  1  0.49999708  0.74630269  0.58829477  1
  C  C43  1  0.50000012  0.74288543  0.83325305  1
  C  C44  1  0.49999897  0.76887949  0.71261088  1
  C  C45  1  0.50000151  0.76566340  0.95753546  1
  C  C46  1  0.49999947  0.81788570  0.71829791  1
  C  C47  1  0.50000153  0.81253558  0.96359502  1
  H  H48  1  0.49999988  0.88135092  0.61630075  1
  H  H49  1  0.50000045  0.87478537  0.85408122  1
  H  H50  1  0.49999867  0.11331796  0.64820944  1
  H  H51  1  0.50000109  0.12790337  0.88214840  1
  H  H52  1  0.49999952  0.83185175  0.50321282  1
  H  H53  1  0.49999777  0.15869393  0.51995802  1
  H  H54  1  0.49999688  0.22691741  0.49255009  1
  H  H55  1  0.49999314  0.30252401  0.45499967  1
  H  H56  1  0.50000198  0.34421245  0.15516606  1
  H  H57  1  0.50000661  0.34519083  0.39251920  1
  H  H58  1  0.49999858  0.51054487  0.15892435  1
  H  H59  1  0.49999517  0.50718578  0.39227543  1
  H  H60  1  0.50000454  0.54822869  0.44537614  1
  H  H61  1  0.50000098  0.62273775  0.46958646  1
  H  H62  1  0.49999524  0.68492559  0.48124408  1
  H  H63  1  0.49999552  0.76561772  0.49532631  1
  H  H64  1  0.50000241  0.18069071  0.07412549  1
  H  H65  1  0.50000177  0.26137388  0.03907706  1
  H  H66  1  0.50000054  0.31885751  0.00405418  1
  H  H67  1  0.49999991  0.53824408  -0.00118995  1
  H  H68  1  0.50000227  0.60029105  0.02153411  1
  H  H69  1  0.50000238  0.68025398  0.03929223  1
  H  H70  1  0.50000297  0.74672708  0.05110519  1
  H  H71  1  0.50000247  0.82915625  0.06133808  1
