# generated using pymatgen
data_H9C22
_symmetry_space_group_name_H-M   'P 1'
_cell_length_a   10.00000000
_cell_length_b   25.62946000
_cell_length_c   9.94714726
_cell_angle_alpha   90.00000000
_cell_angle_beta   90.00000000
_cell_angle_gamma   90.00000000
_symmetry_Int_Tables_number   1
_chemical_formula_structural   H9C22
_chemical_formula_sum   'H18 C44'
_cell_volume   2549.40012713
_cell_formula_units_Z   2
loop_
 _symmetry_equiv_pos_site_id
 _symmetry_equiv_pos_as_xyz
  1  'x, y, z'
loop_
 _atom_site_type_symbol
 _atom_site_label
 _atom_site_symmetry_multiplicity
 _atom_site_fract_x
 _atom_site_fract_y
 _atom_site_fract_z
 _atom_site_occupancy
  C  C0  1  0.49999723  0.82143621  0.62976650  1
  C  C1  1  0.49999849  0.80862425  0.87250292  1
  C  C2  1  0.49999988  0.19487413  0.51475636  1
  C  C3  1  0.49999953  0.18441974  0.75584147  1
  C  C4  1  0.49999982  0.21761720  0.64067279  1
  C  C5  1  0.50000036  0.20638207  0.88181102  1
  C  C6  1  0.50000016  0.27463788  0.66418775  1
  C  C7  1  0.50000119  0.26084870  0.90243141  1
  C  C8  1  0.49999986  0.30622513  0.55215265  1
  C  C9  1  0.50000085  0.29823427  0.79674258  1
  C  C10  1  0.50000017  0.36252692  0.05851383  1
  C  C11  1  0.49999975  0.36269686  0.30600635  1
  C  C12  1  0.50000030  0.36027371  0.55627675  1
  C  C13  1  0.50000092  0.35610243  0.80567057  1
  C  C14  1  0.50000047  0.38910581  0.18149859  1
  C  C15  1  0.50000035  0.38830488  0.42992621  1
  C  C16  1  0.50000090  0.38632791  0.68376670  1
  C  C17  1  0.50000078  0.38623029  0.93139813  1
  C  C18  1  0.50000137  0.44425576  0.18112522  1
  C  C19  1  0.50000109  0.44410652  0.43264580  1
  C  C20  1  0.50000104  0.44322316  0.68309010  1
  C  C21  1  0.50000089  0.44306836  0.93000865  1
  C  C22  1  0.50000109  0.47086775  0.05545829  1
  C  C23  1  0.50000148  0.47040777  0.30667803  1
  C  C24  1  0.50000110  0.47170295  0.55804363  1
  C  C25  1  0.50000078  0.47171948  0.80534441  1
  C  C26  1  0.50000083  0.52678754  0.05828245  1
  C  C27  1  0.50000038  0.52543368  0.30621638  1
  C  C28  1  0.50000006  0.52842710  0.55638209  1
  C  C29  1  0.50000051  0.52869602  0.80456105  1
  C  C30  1  0.50000059  0.55216370  0.18198063  1
  C  C31  1  0.49999810  0.55182344  0.42920411  1
  C  C32  1  0.50000039  0.55865225  0.68247265  1
  C  C33  1  0.50000025  0.55526284  0.93165208  1
  C  C34  1  0.50000077  0.61611991  0.69087660  1
  C  C35  1  0.49999890  0.60925383  0.93521392  1
  C  C36  1  0.50000323  0.65299118  0.58270459  1
  C  C37  1  0.49999915  0.64081125  0.82132332  1
  C  C38  1  0.50000093  0.70643536  0.59936458  1
  C  C39  1  0.49999865  0.69765116  0.84019041  1
  C  C40  1  0.49999845  0.73093421  0.72550467  1
  C  C41  1  0.49999901  0.72138299  0.96869121  1
  C  C42  1  0.49999798  0.78784708  0.73880741  1
  C  C43  1  0.49999903  0.77592629  0.98313752  1
  H  H44  1  0.49999711  0.86369535  0.64607955  1
  H  H45  1  0.49999841  0.85112872  0.88525298  1
  H  H46  1  0.49999939  0.15226956  0.50668914  1
  H  H47  1  0.49999907  0.14204579  0.74125830  1
  H  H48  1  0.49999678  0.80812902  0.52533192  1
  H  H49  1  0.50000031  0.21644082  0.41996625  1
  H  H50  1  0.49999919  0.28728841  0.45467391  1
  H  H51  1  0.49999917  0.32078449  0.06821144  1
  H  H52  1  0.49999861  0.32013326  0.30040147  1
  H  H53  1  0.50000074  0.59473741  0.18826176  1
  H  H54  1  0.49999286  0.59343244  0.41825476  1
  H  H55  1  0.50000914  0.64217389  0.47804830  1
  H  H56  1  0.50000229  0.73041658  0.50831350  1
  H  H57  1  0.50000043  0.18102687  -0.02936145  1
  H  H58  1  0.50000222  0.27074115  0.00790090  1
  H  H59  1  0.49999780  0.62813830  0.03284551  1
  H  H60  1  0.49999988  0.69801700  0.06055285  1
  H  H61  1  0.49999954  0.79279186  0.08443650  1
