# generated using pymatgen
data_HC2
_symmetry_space_group_name_H-M   'P 1'
_cell_length_a   10.00000000
_cell_length_b   25.62946000
_cell_length_c   9.97833479
_cell_angle_alpha   90.00000000
_cell_angle_beta   90.00000000
_cell_angle_gamma   90.00000000
_symmetry_Int_Tables_number   1
_chemical_formula_structural   HC2
_chemical_formula_sum   'H18 C36'
_cell_volume   2557.39332343
_cell_formula_units_Z   18
loop_
 _symmetry_equiv_pos_site_id
 _symmetry_equiv_pos_as_xyz
  1  'x, y, z'
loop_
 _atom_site_type_symbol
 _atom_site_label
 _atom_site_symmetry_multiplicity
 _atom_site_fract_x
 _atom_site_fract_y
 _atom_site_fract_z
 _atom_site_occupancy
  C  C0  1  0.49999985  0.21921727  0.56090342  1
  C  C1  1  0.50000199  0.23440376  0.79052445  1
  C  C2  1  0.50000191  0.25778828  0.65900734  1
  C  C3  1  0.50000199  0.26242946  0.90580572  1
  C  C4  1  0.50000377  0.31754883  0.15669523  1
  C  C5  1  0.50000388  0.31985811  0.40636131  1
  C  C6  1  0.50000256  0.31579797  0.65467106  1
  C  C7  1  0.50000157  0.31777348  0.90522218  1
  C  C8  1  0.50000132  0.34421374  0.03335573  1
  C  C9  1  0.50000206  0.34428520  0.28029105  1
  C  C10  1  0.50000236  0.34561185  0.53071547  1
  C  C11  1  0.50000119  0.34462843  0.77806048  1
  C  C12  1  0.49999830  0.40029863  0.03409870  1
  C  C13  1  0.49999298  0.39978547  0.28006995  1
  C  C14  1  0.49999576  0.40289342  0.53050939  1
  C  C15  1  0.50000034  0.40196660  0.77816870  1
  C  C16  1  0.49999299  0.42641067  0.15655816  1
  C  C17  1  0.49998321  0.42619856  0.40344189  1
  C  C18  1  0.49999980  0.43251925  0.65739441  1
  C  C19  1  0.49999880  0.42802832  0.90590539  1
  C  C20  1  0.50000347  0.48988193  0.66762787  1
  C  C21  1  0.49999511  0.48197357  0.91043345  1
  C  C22  1  0.50001697  0.52727059  0.56083689  1
  C  C23  1  0.49999649  0.51403497  0.79782059  1
  C  C24  1  0.50000725  0.58049104  0.57867625  1
  C  C25  1  0.49999495  0.57046726  0.81816504  1
  C  C26  1  0.49999526  0.60450467  0.70627970  1
  C  C27  1  0.49999573  0.59366566  0.94771739  1
  C  C28  1  0.49999521  0.66073137  0.72309519  1
  C  C29  1  0.49999706  0.64715214  0.96490463  1
  C  C30  1  0.49999622  0.69494297  0.61178025  1
  C  C31  1  0.49999712  0.68217804  0.85544188  1
  C  C32  1  0.50000029  0.74918111  0.62910143  1
  C  C33  1  0.50000057  0.73895229  0.87426627  1
  C  C34  1  0.50000269  0.77084337  0.75622640  1
  C  C35  1  0.50000197  0.76291959  0.99869520  1
  H  H36  1  0.49999948  0.17883516  0.59733101  1
  H  H37  1  0.50000147  0.19168387  0.79544353  1
  H  H38  1  0.50000654  0.81333129  0.76883762  1
  H  H39  1  0.50000437  0.80558586  1.00526066  1
  H  H40  1  0.49999770  0.22195374  0.45229680  1
  H  H41  1  0.50000575  0.27489334  0.16039838  1
  H  H42  1  0.50000653  0.27789695  0.40487580  1
  H  H43  1  0.49999088  0.46902350  0.16216190  1
  H  H44  1  0.49995732  0.46791805  0.39197654  1
  H  H45  1  0.50004543  0.51651805  0.45643666  1
  H  H46  1  0.50001515  0.60447997  0.48807003  1
  H  H47  1  0.49999431  0.67930733  0.50992862  1
  H  H48  1  0.50000190  0.77460844  0.54074505  1
  H  H49  1  0.50000178  0.24123389  0.00055738  1
  H  H50  1  0.49999238  0.50056102  0.00798921  1
  H  H51  1  0.49999696  0.56951031  0.03796774  1
  H  H52  1  0.49999894  0.66236503  0.06742409  1
  H  H53  1  0.50000015  0.74155252  0.09347051  1
