# generated using pymatgen
data_HC2
_symmetry_space_group_name_H-M   'P 1'
_cell_length_a   10.00000000
_cell_length_b   21.36688000
_cell_length_c   9.97035937
_cell_angle_alpha   90.00000000
_cell_angle_beta   90.00000000
_cell_angle_gamma   90.00000000
_symmetry_Int_Tables_number   1
_chemical_formula_structural   HC2
_chemical_formula_sum   'H16 C32'
_cell_volume   2130.35472137
_cell_formula_units_Z   16
loop_
 _symmetry_equiv_pos_site_id
 _symmetry_equiv_pos_as_xyz
  1  'x, y, z'
loop_
 _atom_site_type_symbol
 _atom_site_label
 _atom_site_symmetry_multiplicity
 _atom_site_fract_x
 _atom_site_fract_y
 _atom_site_fract_z
 _atom_site_occupancy
  C  C0  1  0.49999736  0.76618793  0.54371965  1
  C  C1  1  0.49999812  0.77700877  0.78388812  1
  C  C2  1  0.50000203  0.23381203  0.54372000  1
  C  C3  1  0.50000232  0.22298952  0.78388435  1
  C  C4  1  0.50000182  0.26230930  0.66811557  1
  C  C5  1  0.50000171  0.24975038  0.90909948  1
  C  C6  1  0.50000132  0.33093686  0.68979807  1
  C  C7  1  0.50000050  0.31513040  0.92791104  1
  C  C8  1  0.50000130  0.36891329  0.57790271  1
  C  C9  1  0.50000067  0.35957135  0.82172650  1
  C  C10  1  0.50000043  0.43653706  0.08127203  1
  C  C11  1  0.50000020  0.43474984  0.32968559  1
  C  C12  1  0.50000050  0.43400518  0.58118584  1
  C  C13  1  0.50000031  0.42913287  0.82996339  1
  C  C14  1  0.50000013  0.46681891  0.20624132  1
  C  C15  1  0.50000016  0.46643297  0.45251141  1
  C  C16  1  0.50000022  0.46549695  0.70891004  1
  C  C17  1  0.50000020  0.46548792  0.95514644  1
  C  C18  1  0.49999996  0.53318110  0.20624179  1
  C  C19  1  0.49999983  0.53356684  0.45251198  1
  C  C20  1  0.49999980  0.53450291  0.70890909  1
  C  C21  1  0.49999987  0.53451202  0.95514616  1
  C  C22  1  0.49999974  0.56346300  0.08127201  1
  C  C23  1  0.49999988  0.56525030  0.32968489  1
  C  C24  1  0.49999947  0.56599522  0.58118635  1
  C  C25  1  0.49999968  0.57086740  0.82996415  1
  C  C26  1  0.49999870  0.63108602  0.57790107  1
  C  C27  1  0.49999925  0.64042828  0.82172506  1
  C  C28  1  0.49999869  0.66906391  0.68980027  1
  C  C29  1  0.49999937  0.68486959  0.92791281  1
  C  C30  1  0.49999809  0.73769074  0.66811528  1
  C  C31  1  0.49999877  0.75025032  0.90909476  1
  H  H32  1  0.49999671  0.81739191  0.53798369  1
  H  H33  1  0.49999742  0.82796072  0.77071436  1
  H  H34  1  0.50000275  0.18260812  0.53798366  1
  H  H35  1  0.50000310  0.17203999  0.77071467  1
  H  H36  1  0.49999752  0.74125461  0.44799076  1
  H  H37  1  0.50000162  0.25874537  0.44799066  1
  H  H38  1  0.50000182  0.34603903  0.48060469  1
  H  H39  1  0.50000109  0.38648442  0.08934958  1
  H  H40  1  0.50000022  0.38359491  0.32477862  1
  H  H41  1  0.49999935  0.61351558  0.08934956  1
  H  H42  1  0.49999987  0.61640503  0.32477866  1
  H  H43  1  0.49999812  0.65396094  0.48060492  1
  H  H44  1  0.50000184  0.21990819  -0.00140408  1
  H  H45  1  0.49999922  0.32734126  0.03290833  1
  H  H46  1  0.50000025  0.67265875  0.03290768  1
  H  H47  1  0.49999872  0.78009203  -0.00140297  1
