# generated using pymatgen
data_HC2
_symmetry_space_group_name_H-M   'P 1'
_cell_length_a   10.00000000
_cell_length_b   25.62946000
_cell_length_c   9.99349393
_cell_angle_alpha   90.00000000
_cell_angle_beta   90.00000000
_cell_angle_gamma   90.00000000
_symmetry_Int_Tables_number   1
_chemical_formula_structural   HC2
_chemical_formula_sum   'H18 C36'
_cell_volume   2561.27852820
_cell_formula_units_Z   18
loop_
 _symmetry_equiv_pos_site_id
 _symmetry_equiv_pos_as_xyz
  1  'x, y, z'
loop_
 _atom_site_type_symbol
 _atom_site_label
 _atom_site_symmetry_multiplicity
 _atom_site_fract_x
 _atom_site_fract_y
 _atom_site_fract_z
 _atom_site_occupancy
  C  C0  1  0.49999623  0.22008509  0.61724467  1
  C  C1  1  0.49999788  0.23445264  0.85837408  1
  C  C2  1  0.49999681  0.25436546  0.72438724  1
  C  C3  1  0.49999836  0.26771593  0.96742798  1
  C  C4  1  0.49999724  0.31122580  0.70885045  1
  C  C5  1  0.49999767  0.32208955  0.95075487  1
  C  C6  1  0.49999976  0.33545748  0.58283668  1
  C  C7  1  0.49999726  0.34499898  0.82201157  1
  C  C8  1  0.50000146  0.38886816  0.56538342  1
  C  C9  1  0.49999799  0.40169499  0.80205694  1
  C  C10  1  0.49999953  0.42608426  0.67215127  1
  C  C11  1  0.49999823  0.43346425  0.91485634  1
  C  C12  1  0.50000048  0.48820995  0.16314425  1
  C  C13  1  0.49999902  0.48966855  0.41115651  1
  C  C14  1  0.49999979  0.48357572  0.66319857  1
  C  C15  1  0.49999966  0.48738050  0.91154090  1
  C  C16  1  0.50000009  0.51448488  0.04072621  1
  C  C17  1  0.49999994  0.51500444  0.28652623  1
  C  C18  1  0.49999978  0.51370645  0.53721449  1
  C  C19  1  0.49999990  0.51382142  0.78399300  1
  C  C20  1  0.49999973  0.57035276  0.04052321  1
  C  C21  1  0.49999836  0.57032021  0.28653178  1
  C  C22  1  0.49999940  0.57117702  0.53730204  1
  C  C23  1  0.50000060  0.57117105  0.78387263  1
  C  C24  1  0.49999830  0.59693185  0.16297666  1
  C  C25  1  0.49999649  0.59546883  0.41158707  1
  C  C26  1  0.50000110  0.60142262  0.66291678  1
  C  C27  1  0.50000071  0.59726341  0.91159529  1
  C  C28  1  0.50000284  0.65932805  0.67163491  1
  C  C29  1  0.50000163  0.65136986  0.91514951  1
  C  C30  1  0.50000539  0.69674001  0.56626970  1
  C  C31  1  0.50000218  0.68300519  0.80339251  1
  C  C32  1  0.50000420  0.75114567  0.58611365  1
  C  C33  1  0.50000252  0.74008328  0.82616250  1
  C  C34  1  0.50000275  0.77319771  0.71141007  1
  C  C35  1  0.50000262  0.76328664  0.95101255  1
  H  H36  1  0.49999676  0.17788297  0.63510208  1
  H  H37  1  0.49999797  0.19206100  0.87276266  1
  H  H38  1  0.50000269  0.81560712  0.72527888  1
  H  H39  1  0.50000271  0.80595101  0.95789876  1
  H  H40  1  0.49999522  0.23298681  0.51291870  1
  H  H41  1  0.50000132  0.31170006  0.49186445  1
  H  H42  1  0.50000603  0.39929873  0.46092979  1
  H  H43  1  0.50000139  0.44557942  0.16835574  1
  H  H44  1  0.49999619  0.44794687  0.40214701  1
  H  H45  1  0.49999753  0.63956867  0.16760306  1
  H  H46  1  0.49999080  0.63725899  0.40460172  1
  H  H47  1  0.50001071  0.68701426  0.46121168  1
  H  H48  1  0.50000482  0.77617108  0.49712763  1
  H  H49  1  0.49999977  0.25161216  0.06903890  1
  H  H50  1  0.49999828  0.34622686  0.04079977  1
  H  H51  1  0.49999763  0.41462482  0.01199956  1
  H  H52  1  0.50000207  0.67042174  0.01218406  1
  H  H53  1  0.50000219  0.74210004  0.04588901  1
