# generated using pymatgen
data_H2C7
_symmetry_space_group_name_H-M   'P 1'
_cell_length_a   10.00000000
_cell_length_b   29.89204000
_cell_length_c   9.91087540
_cell_angle_alpha   90.00000000
_cell_angle_beta   90.00000000
_cell_angle_gamma   90.00000000
_symmetry_Int_Tables_number   1
_chemical_formula_structural   H2C7
_chemical_formula_sum   'H16 C56'
_cell_volume   2962.56283807
_cell_formula_units_Z   8
loop_
 _symmetry_equiv_pos_site_id
 _symmetry_equiv_pos_as_xyz
  1  'x, y, z'
loop_
 _atom_site_type_symbol
 _atom_site_label
 _atom_site_symmetry_multiplicity
 _atom_site_fract_x
 _atom_site_fract_y
 _atom_site_fract_z
 _atom_site_occupancy
  C  C0  1  0.49999987  0.18737021  0.60380144  1
  C  C1  1  0.50000005  0.20033524  0.83613802  1
  C  C2  1  0.49999998  0.22012193  0.70319240  1
  C  C3  1  0.50000005  0.22446168  0.95211378  1
  C  C4  1  0.50000004  0.27447841  0.19941428  1
  C  C5  1  0.50000007  0.27433628  0.44575433  1
  C  C6  1  0.49999999  0.26964809  0.69745577  1
  C  C7  1  0.50000002  0.27194880  0.94968893  1
  C  C8  1  0.50000001  0.29636924  0.07465569  1
  C  C9  1  0.50000004  0.29766055  0.32287205  1
  C  C10  1  0.50000001  0.29492328  0.57257297  1
  C  C11  1  0.50000000  0.29441645  0.82183543  1
  C  C12  1  0.50000001  0.34436898  0.07302453  1
  C  C13  1  0.50000001  0.34528691  0.32318087  1
  C  C14  1  0.49999999  0.34340362  0.57393026  1
  C  C15  1  0.50000000  0.34304868  0.82226778  1
  C  C16  1  0.50000001  0.36831673  0.19750475  1
  C  C17  1  0.50000000  0.36783996  0.44950184  1
  C  C18  1  0.49999999  0.36732975  0.69852061  1
  C  C19  1  0.50000002  0.36736324  0.94707441  1
  C  C20  1  0.50000005  0.41591364  0.19735086  1
  C  C21  1  0.50000003  0.41567662  0.44955197  1
  C  C22  1  0.50000002  0.41554060  0.69871309  1
  C  C23  1  0.50000005  0.41535986  0.94696634  1
  C  C24  1  0.50000007  0.43923202  0.07155088  1
  C  C25  1  0.50000007  0.43886036  0.32391821  1
  C  C26  1  0.50000003  0.43969662  0.57447836  1
  C  C27  1  0.50000007  0.43960925  0.82280043  1
  C  C28  1  0.50000008  0.48711667  0.07128872  1
  C  C29  1  0.50000009  0.48639927  0.32389178  1
  C  C30  1  0.50000003  0.48765028  0.57453926  1
  C  C31  1  0.50000010  0.48778289  0.82286324  1
  C  C32  1  0.50000005  0.50928338  0.19817734  1
  C  C33  1  0.50000004  0.51052015  0.44795747  1
  C  C34  1  0.50000004  0.51201411  0.69919732  1
  C  C35  1  0.50000009  0.51189741  0.94734141  1
  C  C36  1  0.49999968  0.55657030  0.19857993  1
  C  C37  1  0.49999995  0.55829995  0.44557694  1
  C  C38  1  0.50000003  0.56064539  0.69997048  1
  C  C39  1  0.49999984  0.56051817  0.94877997  1
  C  C40  1  0.49999923  0.58007700  0.07633565  1
  C  C41  1  0.49999970  0.57996013  0.32169690  1
  C  C42  1  0.49999999  0.58306499  0.57220199  1
  C  C43  1  0.50000003  0.58644132  0.82210813  1
  C  C44  1  0.49999988  0.62931144  0.56751813  1
  C  C45  1  0.50000022  0.63562127  0.81271287  1
  C  C46  1  0.49999995  0.65657384  0.68140393  1
  C  C47  1  0.50000081  0.66737266  0.92095322  1
  C  C48  1  0.49999991  0.70528074  0.66172488  1
  C  C49  1  0.50000036  0.71320965  0.90348380  1
  C  C50  1  0.50000000  0.72522044  0.53211494  1
  C  C51  1  0.49999986  0.73407807  0.77631994  1
  C  C52  1  0.50000003  0.77189436  0.51608613  1
  C  C53  1  0.49999981  0.78287383  0.76124208  1
  C  C54  1  0.49999993  0.80020345  0.62642005  1
  C  C55  1  0.49999976  0.81242630  0.86888591  1
  H  H56  1  0.49999993  0.15254455  0.63871667  1
  H  H57  1  0.50000007  0.16372587  0.84182893  1
  H  H58  1  0.49999997  0.83658622  0.61245979  1
  H  H59  1  0.49999982  0.84852743  0.84953530  1
  H  H60  1  0.49999969  0.19071989  0.49482167  1
  H  H61  1  0.50000006  0.23797906  0.20489118  1
  H  H62  1  0.50000018  0.23836860  0.43749560  1
  H  H63  1  0.49999804  0.61572581  0.08968090  1
  H  H64  1  0.49999961  0.61643370  0.31489073  1
  H  H65  1  0.49999980  0.64534298  0.46932338  1
  H  H66  1  0.50000012  0.70493160  0.44045453  1
  H  H67  1  0.50000016  0.78594760  0.41389977  1
  H  H68  1  0.50000007  0.20633222  0.04769972  1
  H  H69  1  0.50000209  0.65778909  0.02586471  1
  H  H70  1  0.50000065  0.73380664  -0.00521055  1
  H  H71  1  0.49999969  0.80182014  -0.02555504  1
