# generated using pymatgen
data_H3C8
_symmetry_space_group_name_H-M   'P 1'
_cell_length_a   10.00000000
_cell_length_b   21.36688000
_cell_length_c   9.89944798
_cell_angle_alpha   90.00000000
_cell_angle_beta   90.00000000
_cell_angle_gamma   90.00000000
_symmetry_Int_Tables_number   1
_chemical_formula_structural   H3C8
_chemical_formula_sum   'H12 C32'
_cell_volume   2115.20317153
_cell_formula_units_Z   4
loop_
 _symmetry_equiv_pos_site_id
 _symmetry_equiv_pos_as_xyz
  1  'x, y, z'
loop_
 _atom_site_type_symbol
 _atom_site_label
 _atom_site_symmetry_multiplicity
 _atom_site_fract_x
 _atom_site_fract_y
 _atom_site_fract_z
 _atom_site_occupancy
  C  C0  1  0.49999941  0.28435735  0.53407493  1
  C  C1  1  0.49999987  0.27480796  0.77636272  1
  C  C2  1  0.49999963  0.31350794  0.65853406  1
  C  C3  1  0.50000024  0.30193844  0.90199248  1
  C  C4  1  0.49999969  0.38226320  0.67903660  1
  C  C5  1  0.50000025  0.36739611  0.91965654  1
  C  C6  1  0.49999920  0.42008400  0.56616903  1
  C  C7  1  0.50000020  0.41110362  0.81207821  1
  C  C8  1  0.50000060  0.48935234  0.07575117  1
  C  C9  1  0.49999950  0.48957209  0.32066438  1
  C  C10  1  0.49999928  0.48525621  0.57091008  1
  C  C11  1  0.50000030  0.48032601  0.82147230  1
  C  C12  1  0.50000005  0.52237401  0.19793205  1
  C  C13  1  0.49999938  0.51982309  0.44496218  1
  C  C14  1  0.49999992  0.51620953  0.69897765  1
  C  C15  1  0.50000044  0.51648050  0.94792580  1
  C  C16  1  0.50000014  0.58884557  0.19771856  1
  C  C17  1  0.49999995  0.58703199  0.44703210  1
  C  C18  1  0.50000003  0.58445965  0.69836203  1
  C  C19  1  0.50000007  0.58486070  0.94691787  1
  C  C20  1  0.50000006  0.61961062  0.07091630  1
  C  C21  1  0.50000025  0.62093183  0.32324329  1
  C  C22  1  0.50000023  0.61849236  0.57382397  1
  C  C23  1  0.49999985  0.61804139  0.82237526  1
  C  C24  1  0.49999985  0.68747354  0.07168577  1
  C  C25  1  0.50000069  0.68847145  0.32319570  1
  C  C26  1  0.50000064  0.68644247  0.57357142  1
  C  C27  1  0.49999959  0.68609005  0.82268121  1
  C  C28  1  0.50000041  0.71958653  0.19696224  1
  C  C29  1  0.50000117  0.71935861  0.44921772  1
  C  C30  1  0.50000015  0.71819855  0.69836950  1
  C  C31  1  0.49999941  0.71883376  0.94672730  1
  H  H32  1  0.49999932  0.23308333  0.52999722  1
  H  H33  1  0.49999982  0.22387712  0.76402139  1
  H  H34  1  0.50000056  0.77094525  0.19585947  1
  H  H35  1  0.50000164  0.77072138  0.45149915  1
  H  H36  1  0.50000019  0.76957823  0.69871719  1
  H  H37  1  0.49999916  0.77018204  0.94519064  1
  H  H38  1  0.49999944  0.30874433  0.43702498  1
  H  H39  1  0.49999859  0.39735026  0.46802559  1
  H  H40  1  0.50000110  0.43951133  0.08985398  1
  H  H41  1  0.49999922  0.43856975  0.31345122  1
  H  H42  1  0.50000054  0.27237657  -0.00743380  1
  H  H43  1  0.49999995  0.38095258  0.02449255  1
