# generated using pymatgen
data_H5C12
_symmetry_space_group_name_H-M   'P 1'
_cell_length_a   10.00000000
_cell_length_b   29.89204000
_cell_length_c   9.94418151
_cell_angle_alpha   90.00000000
_cell_angle_beta   90.00000000
_cell_angle_gamma   90.00000000
_symmetry_Int_Tables_number   1
_chemical_formula_structural   H5C12
_chemical_formula_sum   'H20 C48'
_cell_volume   2972.51871341
_cell_formula_units_Z   4
loop_
 _symmetry_equiv_pos_site_id
 _symmetry_equiv_pos_as_xyz
  1  'x, y, z'
loop_
 _atom_site_type_symbol
 _atom_site_label
 _atom_site_symmetry_multiplicity
 _atom_site_fract_x
 _atom_site_fract_y
 _atom_site_fract_z
 _atom_site_occupancy
  C  C0  1  0.50000049  0.20111743  0.51015967  1
  C  C1  1  0.50000085  0.19337408  0.75152057  1
  C  C2  1  0.50000073  0.22134083  0.63507393  1
  C  C3  1  0.49999814  0.21262580  0.87688233  1
  C  C4  1  0.50000059  0.27037520  0.65649896  1
  C  C5  1  0.49999571  0.25936110  0.89547382  1
  C  C6  1  0.50000092  0.29731576  0.54376443  1
  C  C7  1  0.49999892  0.29096321  0.78866243  1
  C  C8  1  0.50000378  0.34619483  0.05002341  1
  C  C9  1  0.50000158  0.34612070  0.29727451  1
  C  C10  1  0.50000017  0.34375994  0.54749559  1
  C  C11  1  0.49999979  0.34054454  0.79698048  1
  C  C12  1  0.50000126  0.36895558  0.17287010  1
  C  C13  1  0.50000026  0.36800493  0.42123776  1
  C  C14  1  0.49999975  0.36632535  0.67481445  1
  C  C15  1  0.50000074  0.36641508  0.92265946  1
  C  C16  1  0.49999913  0.41622716  0.17223405  1
  C  C17  1  0.49999949  0.41595051  0.42365901  1
  C  C18  1  0.49999957  0.41515634  0.67395475  1
  C  C19  1  0.49999944  0.41513793  0.92098087  1
  C  C20  1  0.49999932  0.43900745  0.04644540  1
  C  C21  1  0.49999904  0.43865053  0.29773843  1
  C  C22  1  0.49999948  0.43965811  0.54889850  1
  C  C23  1  0.49999943  0.43964780  0.79610133  1
  C  C24  1  0.49999964  0.48693017  0.04915220  1
  C  C25  1  0.50000016  0.48586197  0.29712566  1
  C  C26  1  0.50000017  0.48831603  0.54712981  1
  C  C27  1  0.49999955  0.48852890  0.79507830  1
  C  C28  1  0.50000026  0.50874705  0.17277721  1
  C  C29  1  0.50000185  0.50853283  0.42010505  1
  C  C30  1  0.49999972  0.51431411  0.67305337  1
  C  C31  1  0.49999973  0.51129498  0.92213799  1
  C  C32  1  0.49999928  0.56359056  0.68131762  1
  C  C33  1  0.50000031  0.55749570  0.92576671  1
  C  C34  1  0.49999756  0.59556078  0.57338756  1
  C  C35  1  0.50000017  0.58459677  0.81166933  1
  C  C36  1  0.49999891  0.64122451  0.59053660  1
  C  C37  1  0.50000034  0.63310642  0.83077657  1
  C  C38  1  0.50000039  0.66215008  0.71806618  1
  C  C39  1  0.50000024  0.65324699  0.96040011  1
  C  C40  1  0.50000045  0.71040637  0.73392854  1
  C  C41  1  0.50000017  0.69911530  0.97665485  1
  C  C42  1  0.50000038  0.73967920  0.62187396  1
  C  C43  1  0.50000025  0.72896942  0.86648317  1
  C  C44  1  0.50000014  0.78618777  0.63942982  1
  C  C45  1  0.50000010  0.77762034  0.88555352  1
  C  C46  1  0.50000004  0.80487336  0.76697804  1
  C  C47  1  0.50000002  0.79772713  1.01114650  1
  H  H48  1  0.50000051  0.16451864  0.50427792  1
  H  H49  1  0.50000170  0.15696936  0.73878049  1
  H  H50  1  0.49999994  0.84130404  0.77939735  1
  H  H51  1  0.49999988  0.83426874  1.01980109  1
  H  H52  1  0.50000012  0.21903853  0.41433945  1
  H  H53  1  0.50000135  0.28089878  0.44634370  1
  H  H54  1  0.50001035  0.31047438  0.06101197  1
  H  H55  1  0.50000250  0.30959764  0.29179496  1
  H  H56  1  0.50000066  0.54525877  0.17846461  1
  H  H57  1  0.50000570  0.54424806  0.40978690  1
  H  H58  1  0.49999376  0.58653910  0.46838275  1
  H  H59  1  0.49999788  0.66162864  0.49920514  1
  H  H60  1  0.50000044  0.72642026  0.51945829  1
  H  H61  1  0.50000008  0.80802914  0.55082684  1
  H  H62  1  0.49999708  0.19135214  -0.03324785  1
  H  H63  1  0.49998877  0.26832271  0.00050139  1
  H  H64  1  0.50000069  0.57376237  0.02327404  1
  H  H65  1  0.50000005  0.63285333  0.05154690  1
  H  H66  1  0.49999998  0.71250811  0.07905033  1
  H  H67  1  0.50000013  0.77870454  0.10507082  1
