# generated using pymatgen
data_H3C14
_symmetry_space_group_name_H-M   'P 1'
_cell_length_a   10.00000000
_cell_length_b   25.62946000
_cell_length_c   9.90283803
_cell_angle_alpha   90.00000000
_cell_angle_beta   90.00000000
_cell_angle_gamma   90.00000000
_symmetry_Int_Tables_number   1
_chemical_formula_structural   H3C14
_chemical_formula_sum   'H12 C56'
_cell_volume   2538.04391271
_cell_formula_units_Z   4
loop_
 _symmetry_equiv_pos_site_id
 _symmetry_equiv_pos_as_xyz
  1  'x, y, z'
loop_
 _atom_site_type_symbol
 _atom_site_label
 _atom_site_symmetry_multiplicity
 _atom_site_fract_x
 _atom_site_fract_y
 _atom_site_fract_z
 _atom_site_occupancy
  C  C0  1  0.49999900  0.82168199  0.58796401  1
  C  C1  1  0.49999903  0.80656869  0.82035516  1
  C  C2  1  0.50000098  0.17831801  0.58796401  1
  C  C3  1  0.50000099  0.19343131  0.82035517  1
  C  C4  1  0.50000116  0.21658517  0.68743082  1
  C  C5  1  0.50000059  0.22150009  0.93658094  1
  C  C6  1  0.50000020  0.27962450  0.18456861  1
  C  C7  1  0.50000031  0.27964612  0.43076713  1
  C  C8  1  0.50000094  0.27431017  0.68212710  1
  C  C9  1  0.50000050  0.27685385  0.93449968  1
  C  C10  1  0.50000027  0.30522288  0.05982522  1
  C  C11  1  0.50000016  0.30680051  0.30781451  1
  C  C12  1  0.50000058  0.30378908  0.55729563  1
  C  C13  1  0.50000066  0.30312058  0.80668457  1
  C  C14  1  0.50000018  0.36121247  0.05839084  1
  C  C15  1  0.50000014  0.36232770  0.30808626  1
  C  C16  1  0.50000035  0.36030221  0.55859170  1
  C  C17  1  0.50000034  0.35972504  0.80751730  1
  C  C18  1  0.50000011  0.38928674  0.18265313  1
  C  C19  1  0.50000015  0.38879779  0.43414081  1
  C  C20  1  0.50000026  0.38792804  0.68352687  1
  C  C21  1  0.50000014  0.38805361  0.93237948  1
  C  C22  1  0.50000004  0.44489504  0.18285576  1
  C  C23  1  0.50000004  0.44458905  0.43401633  1
  C  C24  1  0.50000004  0.44402885  0.68353814  1
  C  C25  1  0.50000003  0.44399163  0.93258005  1
  C  C26  1  0.50000001  0.47211132  0.05746063  1
  C  C27  1  0.50000001  0.47217473  0.30865260  1
  C  C28  1  0.50000002  0.47209605  0.55893599  1
  C  C29  1  0.50000001  0.47197820  0.80802136  1
  C  C30  1  0.49999999  0.52788868  0.05746063  1
  C  C31  1  0.49999999  0.52782527  0.30865260  1
  C  C32  1  0.49999998  0.52790395  0.55893599  1
  C  C33  1  0.50000000  0.52802180  0.80802136  1
  C  C34  1  0.49999996  0.55510496  0.18285576  1
  C  C35  1  0.49999996  0.55541095  0.43401633  1
  C  C36  1  0.49999995  0.55597115  0.68353814  1
  C  C37  1  0.49999997  0.55600837  0.93258005  1
  C  C38  1  0.49999989  0.61071326  0.18265313  1
  C  C39  1  0.49999984  0.61120221  0.43414081  1
  C  C40  1  0.49999974  0.61207196  0.68352687  1
  C  C41  1  0.49999986  0.61194639  0.93237948  1
  C  C42  1  0.49999982  0.63878753  0.05839084  1
  C  C43  1  0.49999986  0.63767230  0.30808626  1
  C  C44  1  0.49999964  0.63969779  0.55859170  1
  C  C45  1  0.49999966  0.64027496  0.80751730  1
  C  C46  1  0.49999973  0.69477712  0.05982522  1
  C  C47  1  0.49999984  0.69319949  0.30781451  1
  C  C48  1  0.49999942  0.69621092  0.55729563  1
  C  C49  1  0.49999934  0.69687942  0.80668457  1
  C  C50  1  0.49999979  0.72037550  0.18456861  1
  C  C51  1  0.49999970  0.72035388  0.43076713  1
  C  C52  1  0.49999905  0.72568983  0.68212709  1
  C  C53  1  0.49999951  0.72314615  0.93449968  1
  C  C54  1  0.49999883  0.78341483  0.68743082  1
  C  C55  1  0.49999944  0.77849991  0.93658094  1
  H  H56  1  0.49999898  0.86222838  0.62346306  1
  H  H57  1  0.49999916  0.84925754  0.82543651  1
  H  H58  1  0.50000103  0.13777162  0.62346305  1
  H  H59  1  0.50000086  0.15074246  0.82543651  1
  H  H60  1  0.49999923  0.81818665  0.47871417  1
  H  H61  1  0.50000070  0.18181335  0.47871418  1
  H  H62  1  0.50000034  0.23704572  0.19050144  1
  H  H63  1  0.50000019  0.23771538  0.42244094  1
  H  H64  1  0.49999964  0.76295428  0.19050144  1
  H  H65  1  0.49999985  0.76228462  0.42244094  1
  H  H66  1  0.50000031  0.20036318  0.03218327  1
  H  H67  1  0.49999974  0.79963683  0.03218326  1
