# generated using pymatgen
data_HC2
_symmetry_space_group_name_H-M   'P 1'
_cell_length_a   10.00000000
_cell_length_b   29.89204000
_cell_length_c   9.99666860
_cell_angle_alpha   90.00000000
_cell_angle_beta   90.00000000
_cell_angle_gamma   90.00000000
_symmetry_Int_Tables_number   1
_chemical_formula_structural   HC2
_chemical_formula_sum   'H22 C44'
_cell_volume   2988.20817600
_cell_formula_units_Z   22
loop_
 _symmetry_equiv_pos_site_id
 _symmetry_equiv_pos_as_xyz
  1  'x, y, z'
loop_
 _atom_site_type_symbol
 _atom_site_label
 _atom_site_symmetry_multiplicity
 _atom_site_fract_x
 _atom_site_fract_y
 _atom_site_fract_z
 _atom_site_occupancy
  C  C0  1  0.50000402  0.20125591  0.56698871  1
  C  C1  1  0.50000554  0.19324063  0.80687296  1
  C  C2  1  0.50000479  0.22138089  0.69149609  1
  C  C3  1  0.49998780  0.21237049  0.93185943  1
  C  C4  1  0.50000199  0.27038797  0.71320248  1
  C  C5  1  0.49997043  0.25901455  0.95060578  1
  C  C6  1  0.50000552  0.29750434  0.60126375  1
  C  C7  1  0.49998830  0.29082898  0.84457088  1
  C  C8  1  0.50000899  0.34554325  0.10435138  1
  C  C9  1  0.49999689  0.34440216  0.35304212  1
  C  C10  1  0.50000058  0.34394952  0.60433347  1
  C  C11  1  0.49999250  0.34042333  0.85288323  1
  C  C12  1  0.50000091  0.36710498  0.22931484  1
  C  C13  1  0.50000046  0.36713590  0.47542098  1
  C  C14  1  0.49999878  0.36640882  0.73199170  1
  C  C15  1  0.49999675  0.36628871  0.97845649  1
  C  C16  1  0.50002362  0.41447944  0.22900878  1
  C  C17  1  0.50000591  0.41503187  0.47486916  1
  C  C18  1  0.49999910  0.41565728  0.73173951  1
  C  C19  1  0.50001296  0.41554270  0.97830319  1
  C  C20  1  0.50006182  0.43607985  0.10423036  1
  C  C21  1  0.50002180  0.43748136  0.35232082  1
  C  C22  1  0.50000207  0.43834199  0.60408968  1
  C  C23  1  0.49999710  0.44158101  0.85246718  1
  C  C24  1  0.50001007  0.48454923  0.60072106  1
  C  C25  1  0.49997953  0.49088644  0.84358306  1
  C  C26  1  0.50000391  0.51181706  0.71391926  1
  C  C27  1  0.49992857  0.52291441  0.95072031  1
  C  C28  1  0.50000897  0.56030015  0.69480806  1
  C  C29  1  0.49996704  0.56854987  0.93376609  1
  C  C30  1  0.50000592  0.58055601  0.56574631  1
  C  C31  1  0.50001035  0.58942190  0.80673208  1
  C  C32  1  0.50000409  0.62627724  0.54947715  1
  C  C33  1  0.50001263  0.63755806  0.79063609  1
  C  C34  1  0.50000737  0.65635048  0.65972315  1
  C  C35  1  0.50001046  0.66730329  0.90183299  1
  C  C36  1  0.50000304  0.70453978  0.64148955  1
  C  C37  1  0.50000483  0.71311663  0.88476668  1
  C  C38  1  0.50000026  0.72402720  0.51234192  1
  C  C39  1  0.50000231  0.73310900  0.75636820  1
  C  C40  1  0.49999828  0.77053710  0.49562707  1
  C  C41  1  0.50000011  0.78189270  0.73934023  1
  C  C42  1  0.49999833  0.79889942  0.60522894  1
  C  C43  1  0.50000074  0.81197720  0.84491210  1
  H  H44  1  0.50000501  0.16466519  0.56068689  1
  H  H45  1  0.50001156  0.15684675  0.79385935  1
  H  H46  1  0.49999774  0.83528864  0.59121252  1
  H  H47  1  0.49999934  0.84795512  0.82380274  1
  H  H48  1  0.50000071  0.21927126  0.47186459  1
  H  H49  1  0.50001105  0.28104796  0.50448805  1
  H  H50  1  0.50004093  0.30975771  0.11224662  1
  H  H51  1  0.49999222  0.30787073  0.34925662  1
  H  H52  1  0.50016717  0.47183168  0.11261242  1
  H  H53  1  0.50002580  0.47401877  0.34668902  1
  H  H54  1  0.50001725  0.50073487  0.50364407  1
  H  H55  1  0.50000068  0.56017126  0.47499830  1
  H  H56  1  0.49999794  0.63936051  0.44736616  1
  H  H57  1  0.50000057  0.70281824  0.42327252  1
  H  H58  1  0.49999704  0.78458096  0.39434084  1
  H  H59  1  0.49998142  0.19115550  0.02137101  1
  H  H60  1  0.49992965  0.26764366  0.05533392  1
  H  H61  1  0.49981993  0.51385821  0.05506325  1
  H  H62  1  0.49993982  0.58893796  0.02462118  1
  H  H63  1  0.50001319  0.65406832  0.00381190  1
  H  H64  1  0.50000272  0.73443596  -0.02616555  1
  H  H65  1  0.50000282  0.80206662  -0.04979969  1
