# generated using pymatgen
data_H5C12
_symmetry_space_group_name_H-M   'P 1'
_cell_length_a   10.00000000
_cell_length_b   29.89204000
_cell_length_c   9.94691414
_cell_angle_alpha   90.00000000
_cell_angle_beta   90.00000000
_cell_angle_gamma   90.00000000
_symmetry_Int_Tables_number   1
_chemical_formula_structural   H5C12
_chemical_formula_sum   'H20 C48'
_cell_volume   2973.33555325
_cell_formula_units_Z   4
loop_
 _symmetry_equiv_pos_site_id
 _symmetry_equiv_pos_as_xyz
  1  'x, y, z'
loop_
 _atom_site_type_symbol
 _atom_site_label
 _atom_site_symmetry_multiplicity
 _atom_site_fract_x
 _atom_site_fract_y
 _atom_site_fract_z
 _atom_site_occupancy
  C  C0  1  0.49999992  0.18688700  0.64121691  1
  C  C1  1  0.50000027  0.19939190  0.88291967  1
  C  C2  1  0.50000018  0.21651183  0.74829442  1
  C  C3  1  0.50000034  0.22788070  0.99250215  1
  C  C4  1  0.50000018  0.26528002  0.73273944  1
  C  C5  1  0.50000029  0.27452320  0.97585125  1
  C  C6  1  0.49999945  0.28600641  0.60601380  1
  C  C7  1  0.50000024  0.29422320  0.84650728  1
  C  C8  1  0.49999886  0.33184760  0.58821601  1
  C  C9  1  0.50000012  0.34285363  0.82650325  1
  C  C10  1  0.49999970  0.36376379  0.69581407  1
  C  C11  1  0.50000021  0.37000266  0.94019367  1
  C  C12  1  0.50000053  0.41872055  0.18778201  1
  C  C13  1  0.50000117  0.41900102  0.43502288  1
  C  C14  1  0.50000000  0.41313446  0.68774090  1
  C  C15  1  0.50000010  0.41618808  0.93693076  1
  C  C16  1  0.50000020  0.44049515  0.06400924  1
  C  C17  1  0.50000056  0.44163592  0.31213706  1
  C  C18  1  0.50000030  0.43922475  0.56211392  1
  C  C19  1  0.50000005  0.43889880  0.80985143  1
  C  C20  1  0.50000008  0.48840182  0.06129907  1
  C  C21  1  0.50000004  0.48883819  0.31276794  1
  C  C22  1  0.49999992  0.48786347  0.56392081  1
  C  C23  1  0.50000008  0.48770594  0.81092999  1
  C  C24  1  0.49999995  0.51115899  0.18723959  1
  C  C25  1  0.49999992  0.51159120  0.43865110  1
  C  C26  1  0.49999991  0.51229576  0.68906299  1
  C  C27  1  0.50000007  0.51213798  0.93605314  1
  C  C28  1  0.49999944  0.55835861  0.18778096  1
  C  C29  1  0.49999980  0.55951218  0.43595635  1
  C  C30  1  0.49999994  0.56110261  0.69016931  1
  C  C31  1  0.49999970  0.56077908  0.93785102  1
  C  C32  1  0.49999884  0.58098705  0.06488978  1
  C  C33  1  0.49999947  0.58127207  0.31220558  1
  C  C34  1  0.49999989  0.58379619  0.56302395  1
  C  C35  1  0.49999999  0.58686725  0.81221994  1
  C  C36  1  0.49999979  0.63000538  0.55981046  1
  C  C37  1  0.50000029  0.63623702  0.80418711  1
  C  C38  1  0.49999988  0.65714142  0.67349455  1
  C  C39  1  0.50000112  0.66815218  0.91179545  1
  C  C40  1  0.49999977  0.70577591  0.65351180  1
  C  C41  1  0.50000054  0.71398822  0.89399223  1
  C  C42  1  0.49999970  0.72547916  0.52414934  1
  C  C43  1  0.49999983  0.73472032  0.76729088  1
  C  C44  1  0.49999966  0.77212084  0.50754625  1
  C  C45  1  0.49999983  0.78348957  0.75174534  1
  C  C46  1  0.49999973  0.80061472  0.61712994  1
  C  C47  1  0.50000009  0.81311302  0.85883033  1
  H  H48  1  0.49999981  0.15079817  0.66075578  1
  H  H49  1  0.50000022  0.16300510  0.89722430  1
  H  H50  1  0.49999977  0.83699498  0.60282379  1
  H  H51  1  0.50000020  0.84919902  0.83931216  1
  H  H52  1  0.49999975  0.19739241  0.53588097  1
  H  H53  1  0.49999901  0.26524243  0.51530784  1
  H  H54  1  0.49999710  0.34075509  0.48313491  1
  H  H55  1  0.50000063  0.38220251  0.19393321  1
  H  H56  1  0.50000285  0.38329089  0.42491895  1
  H  H57  1  0.49999723  0.61670827  0.07503101  1
  H  H58  1  0.49999937  0.61778416  0.30602073  1
  H  H59  1  0.49999970  0.64623773  0.46235789  1
  H  H60  1  0.49999975  0.70497948  0.43323248  1
  H  H61  1  0.49999960  0.78603954  0.40554759  1
  H  H62  1  0.50000039  0.21397770  0.09451688  1
  H  H63  1  0.50000023  0.29503765  0.06673521  1
  H  H64  1  0.50000031  0.35376620  0.03766602  1
  H  H65  1  0.50000287  0.65924693  0.01688056  1
  H  H66  1  0.50000098  0.73476215  -0.01530648  1
  H  H67  1  0.50000027  0.80260277  -0.03583911  1
