# generated using pymatgen
data_HC3
_symmetry_space_group_name_H-M   'P 1'
_cell_length_a   10.00000000
_cell_length_b   25.62946000
_cell_length_c   14.89746341
_cell_angle_alpha   90.00000000
_cell_angle_beta   90.00000000
_cell_angle_gamma   90.00000000
_symmetry_Int_Tables_number   1
_chemical_formula_structural   HC3
_chemical_formula_sum   'H20 C60'
_cell_volume   3818.13942605
_cell_formula_units_Z   20
loop_
 _symmetry_equiv_pos_site_id
 _symmetry_equiv_pos_as_xyz
  1  'x, y, z'
loop_
 _atom_site_type_symbol
 _atom_site_label
 _atom_site_symmetry_multiplicity
 _atom_site_fract_x
 _atom_site_fract_y
 _atom_site_fract_z
 _atom_site_occupancy
  C  C0  1  0.50000104  0.21918025  0.56732755  1
  C  C1  1  0.49999718  0.23503066  0.72082269  1
  C  C2  1  0.49999596  0.23563515  0.88329285  1
  C  C3  1  0.49999913  0.25781359  0.63355007  1
  C  C4  1  0.49999671  0.26287348  0.80005018  1
  C  C5  1  0.49999729  0.26269854  0.96212203  1
  C  C6  1  0.49999994  0.31921445  0.13001361  1
  C  C7  1  0.49999908  0.31818808  0.29690442  1
  C  C8  1  0.49999847  0.31958423  0.46240398  1
  C  C9  1  0.49999912  0.31571281  0.62998851  1
  C  C10  1  0.49999845  0.31883497  0.79788572  1
  C  C11  1  0.49999926  0.31826290  0.96321838  1
  C  C12  1  0.50000044  0.34576265  0.04757790  1
  C  C13  1  0.50000018  0.34468492  0.21410464  1
  C  C14  1  0.49999920  0.34550084  0.37916611  1
  C  C15  1  0.49999918  0.34444061  0.54622734  1
  C  C16  1  0.49999929  0.34484430  0.71245482  1
  C  C17  1  0.49999982  0.34668732  0.88051756  1
  C  C18  1  0.50000163  0.40204231  0.04639540  1
  C  C19  1  0.50000106  0.40065460  0.21387174  1
  C  C20  1  0.50000004  0.40142291  0.37944907  1
  C  C21  1  0.49999983  0.40097499  0.54701034  1
  C  C22  1  0.50000030  0.40173660  0.71336302  1
  C  C23  1  0.50000157  0.40311172  0.88018129  1
  C  C24  1  0.50000168  0.42777558  0.13096600  1
  C  C25  1  0.50000060  0.42837155  0.29630551  1
  C  C26  1  0.50000006  0.42833895  0.46306713  1
  C  C27  1  0.50000039  0.42905039  0.63011315  1
  C  C28  1  0.50000127  0.43070063  0.79688996  1
  C  C29  1  0.50000219  0.43075277  0.96337747  1
  C  C30  1  0.49999961  0.48339112  0.13182497  1
  C  C31  1  0.50000055  0.48434223  0.29603114  1
  C  C32  1  0.50000055  0.48431892  0.46141242  1
  C  C33  1  0.50000109  0.48526916  0.62987123  1
  C  C34  1  0.50000180  0.48785689  0.79739874  1
  C  C35  1  0.50000053  0.48758028  0.96424577  1
  C  C36  1  0.49999596  0.51018578  0.04966905  1
  C  C37  1  0.49999968  0.51077348  0.21370879  1
  C  C38  1  0.50000063  0.51044400  0.37949181  1
  C  C39  1  0.50000093  0.51221807  0.54634734  1
  C  C40  1  0.50000157  0.51464664  0.71170256  1
  C  C41  1  0.50000192  0.51720853  0.87934019  1
  C  C42  1  0.50000100  0.56645010  0.54553705  1
  C  C43  1  0.50000113  0.57058637  0.70783304  1
  C  C44  1  0.50000333  0.57490435  0.87401211  1
  C  C45  1  0.50000079  0.59646061  0.62275704  1
  C  C46  1  0.50000132  0.60089139  0.78840640  1
  C  C47  1  0.50000726  0.60996083  0.94817121  1
  C  C48  1  0.50000030  0.65313786  0.61527115  1
  C  C49  1  0.50000069  0.65749741  0.78132274  1
  C  C50  1  0.50000384  0.66357675  0.94170129  1
  C  C51  1  0.49999930  0.67921055  0.53169028  1
  C  C52  1  0.50000036  0.68282256  0.69509524  1
  C  C53  1  0.50000041  0.68940099  0.85923971  1
  C  C54  1  0.49999866  0.73374950  0.52624800  1
  C  C55  1  0.49999979  0.73912459  0.68941229  1
  C  C56  1  0.49999973  0.74670171  0.85447526  1
  C  C57  1  0.49999907  0.76356651  0.60387473  1
  C  C58  1  0.49999960  0.76931797  0.76777864  1
  C  C59  1  0.49999962  0.77891304  0.92923698  1
  H  H60  1  0.50000082  0.17872121  0.59131979  1
  H  H61  1  0.49999693  0.19233270  0.72513180  1
  H  H62  1  0.49999478  0.19285707  0.88252457  1
  H  H63  1  0.49999869  0.80631930  0.60065357  1
  H  H64  1  0.49999917  0.81197065  0.76187388  1
  H  H65  1  0.49999931  0.82134524  0.91993201  1
  H  H66  1  0.50000339  0.22239563  0.49473614  1
  H  H67  1  0.49999909  0.27659493  0.13154838  1
  H  H68  1  0.49999796  0.27535465  0.29740746  1
  H  H69  1  0.49999705  0.27763490  0.45884866  1
  H  H70  1  0.49998564  0.55151936  0.05970604  1
  H  H71  1  0.49999951  0.55359277  0.21312233  1
  H  H72  1  0.50000067  0.55303211  0.37656617  1
  H  H73  1  0.50000110  0.58636061  0.48123557  1
  H  H74  1  0.49999870  0.65729984  0.46874045  1
  H  H75  1  0.49999765  0.75267819  0.46024887  1
  H  H76  1  0.49999714  0.24091738  0.02507215  1
  H  H77  1  0.50001612  0.59745360  0.01686594  1
  H  H78  1  0.50000520  0.68577158  0.00440062  1
  H  H79  1  0.49999969  0.76461657  -0.00166000  1
