# generated using pymatgen
data_H11C39
_symmetry_space_group_name_H-M   'P 1'
_cell_length_a   10.00000000
_cell_length_b   29.89204000
_cell_length_c   14.86807988
_cell_angle_alpha   90.00000000
_cell_angle_beta   90.00000000
_cell_angle_gamma   90.00000000
_symmetry_Int_Tables_number   1
_chemical_formula_structural   H11C39
_chemical_formula_sum   'H22 C78'
_cell_volume   4444.37238465
_cell_formula_units_Z   2
loop_
 _symmetry_equiv_pos_site_id
 _symmetry_equiv_pos_as_xyz
  1  'x, y, z'
loop_
 _atom_site_type_symbol
 _atom_site_label
 _atom_site_symmetry_multiplicity
 _atom_site_fract_x
 _atom_site_fract_y
 _atom_site_fract_z
 _atom_site_occupancy
  C  C0  1  0.49999673  0.20135113  0.51895047  1
  C  C1  1  0.49999940  0.19952013  0.68200185  1
  C  C2  1  0.50000192  0.19433779  0.84709258  1
  C  C3  1  0.49999802  0.22408445  0.60028511  1
  C  C4  1  0.50000021  0.22007063  0.76685048  1
  C  C5  1  0.50000354  0.21523652  0.93041463  1
  C  C6  1  0.49999790  0.27323193  0.60712365  1
  C  C7  1  0.49999973  0.26818432  0.77317770  1
  C  C8  1  0.50000269  0.26200302  0.93647463  1
  C  C9  1  0.49999703  0.30025622  0.52977743  1
  C  C10  1  0.49999871  0.29466224  0.69279020  1
  C  C11  1  0.50000048  0.28908688  0.85864660  1
  C  C12  1  0.49999689  0.34642489  0.53568728  1
  C  C13  1  0.49999867  0.34274158  0.69895215  1
  C  C14  1  0.50000002  0.33769317  0.86332314  1
  C  C15  1  0.49999792  0.36869359  0.61952285  1
  C  C16  1  0.49999927  0.36488438  0.78524405  1
  C  C17  1  0.50000414  0.35993424  0.94609054  1
  C  C18  1  0.49999822  0.41720344  0.62666686  1
  C  C19  1  0.49999946  0.41340281  0.79229526  1
  C  C20  1  0.50000765  0.40581078  0.95242467  1
  C  C21  1  0.49999875  0.44295266  0.54912595  1
  C  C22  1  0.49999874  0.43945629  0.71172677  1
  C  C23  1  0.50000225  0.43583734  0.87799290  1
  C  C24  1  0.49999543  0.49166703  0.05280769  1
  C  C25  1  0.49999916  0.49120523  0.21709189  1
  C  C26  1  0.50000018  0.49110595  0.38272644  1
  C  C27  1  0.49999937  0.48941079  0.54985640  1
  C  C28  1  0.49999955  0.48737868  0.71554090  1
  C  C29  1  0.50000053  0.48524283  0.88299836  1
  C  C30  1  0.49999889  0.51461547  0.13503909  1
  C  C31  1  0.50000016  0.51387885  0.29967157  1
  C  C32  1  0.49999987  0.51339490  0.46487326  1
  C  C33  1  0.49999955  0.51253802  0.63364675  1
  C  C34  1  0.50000000  0.51037718  0.80107046  1
  C  C35  1  0.49999939  0.51103655  0.96738642  1
  C  C36  1  0.50000081  0.56218370  0.13403878  1
  C  C37  1  0.50000032  0.56183997  0.30026988  1
  C  C38  1  0.49999990  0.56126846  0.46662570  1
  C  C39  1  0.49999975  0.56058788  0.63404892  1
  C  C40  1  0.49999998  0.55920308  0.80070152  1
  C  C41  1  0.50000085  0.55976944  0.96629655  1
  C  C42  1  0.50000066  0.58438107  0.04938298  1
  C  C43  1  0.50000069  0.58535313  0.21727989  1
  C  C44  1  0.50000009  0.58510014  0.38361236  1
  C  C45  1  0.49999984  0.58453627  0.55053173  1
  C  C46  1  0.49999985  0.58388267  0.71780769  1
  C  C47  1  0.50000056  0.58365033  0.88343308  1
  C  C48  1  0.50000030  0.63239054  0.04968258  1
  C  C49  1  0.50000033  0.63278329  0.21725832  1
  C  C50  1  0.50000006  0.63295371  0.38373480  1
  C  C51  1  0.49999995  0.63246784  0.55042011  1
  C  C52  1  0.49999998  0.63234222  0.71775649  1
  C  C53  1  0.50000031  0.63212902  0.88365598  1
  C  C54  1  0.50000014  0.65555914  0.13359880  1
  C  C55  1  0.50000006  0.65630126  0.30036545  1
  C  C56  1  0.50000001  0.65643822  0.46704411  1
  C  C57  1  0.49999999  0.65589117  0.63398542  1
  C  C58  1  0.50000007  0.65657607  0.80110784  1
  C  C59  1  0.50000018  0.65631797  0.96645346  1
  C  C60  1  0.49999997  0.70341928  0.13430029  1
  C  C61  1  0.49999986  0.70433781  0.29984074  1
  C  C62  1  0.50000001  0.70459324  0.46582760  1
  C  C63  1  0.50000009  0.70400759  0.63348710  1
  C  C64  1  0.49999998  0.70517791  0.80192336  1
  C  C65  1  0.50000002  0.70481691  0.96757151  1
  C  C66  1  0.50000006  0.72599085  0.05150596  1
  C  C67  1  0.49999987  0.72677745  0.21664551  1
  C  C68  1  0.49999984  0.72703281  0.38310118  1
  C  C69  1  0.50000015  0.72831202  0.55041867  1
  C  C70  1  0.50000008  0.72762419  0.71644785  1
  C  C71  1  0.49999991  0.72992267  0.88453831  1
  C  C72  1  0.50000045  0.77591011  0.55191859  1
  C  C73  1  0.50000020  0.77554088  0.71465123  1
  C  C74  1  0.49999973  0.77953649  0.88161720  1
  C  C75  1  0.50000051  0.79892455  0.63133230  1
  C  C76  1  0.49999994  0.79924204  0.79435924  1
  C  C77  1  0.49999942  0.81248259  0.94836422  1
  H  H78  1  0.49999682  0.16467986  0.51854646  1
  H  H79  1  0.49999975  0.16285990  0.67854017  1
  H  H80  1  0.50000180  0.15775415  0.84189124  1
  H  H81  1  0.50000081  0.83560006  0.63254944  1
  H  H82  1  0.49999979  0.83586698  0.79079652  1
  H  H83  1  0.49999955  0.84725268  0.92486457  1
  H  H84  1  0.49999569  0.21810706  0.45357211  1
  H  H85  1  0.49999643  0.28471960  0.46313925  1
  H  H86  1  0.49999580  0.36525321  0.47270536  1
  H  H87  1  0.49999882  0.42583924  0.48473927  1
  H  H88  1  0.49998616  0.45622274  0.06236483  1
  H  H89  1  0.49999910  0.45448417  0.21667809  1
  H  H90  1  0.50000021  0.45460040  0.37950852  1
  H  H91  1  0.50000032  0.76192564  0.05561331  1
  H  H92  1  0.49999986  0.76349222  0.21573441  1
  H  H93  1  0.49999969  0.76358819  0.38070448  1
  H  H94  1  0.50000066  0.79475506  0.48900836  1
  H  H95  1  0.50000506  0.19515176  -0.00792530  1
  H  H96  1  0.50000415  0.27728226  0.00322852  1
  H  H97  1  0.50000666  0.34106737  0.00904515  1
  H  H98  1  0.50001871  0.41639034  0.02136356  1
  H  H99  1  0.49999900  0.80952552  0.02104141  1
