# generated using pymatgen
data_HC6
_symmetry_space_group_name_H-M   'P 1'
_cell_length_a   10.00000000
_cell_length_b   29.89204000
_cell_length_c   14.83865082
_cell_angle_alpha   90.00000000
_cell_angle_beta   90.00000000
_cell_angle_gamma   90.00000000
_symmetry_Int_Tables_number   1
_chemical_formula_structural   HC6
_chemical_formula_sum   'H16 C96'
_cell_volume   4435.57543853
_cell_formula_units_Z   16
loop_
 _symmetry_equiv_pos_site_id
 _symmetry_equiv_pos_as_xyz
  1  'x, y, z'
loop_
 _atom_site_type_symbol
 _atom_site_label
 _atom_site_symmetry_multiplicity
 _atom_site_fract_x
 _atom_site_fract_y
 _atom_site_fract_z
 _atom_site_occupancy
  C  C0  1  0.50000005  0.18832883  0.55817044  1
  C  C1  1  0.50000002  0.20147909  0.71271702  1
  C  C2  1  0.49999997  0.20195143  0.87656313  1
  C  C3  1  0.50000005  0.22124154  0.62531141  1
  C  C4  1  0.50000000  0.22513554  0.79280062  1
  C  C5  1  0.49999998  0.22505847  0.95620181  1
  C  C6  1  0.50000000  0.27481841  0.12491294  1
  C  C7  1  0.49999999  0.27499690  0.29029857  1
  C  C8  1  0.50000001  0.27514626  0.45530773  1
  C  C9  1  0.50000002  0.27084558  0.62263537  1
  C  C10  1  0.50000000  0.27301466  0.79118971  1
  C  C11  1  0.50000000  0.27267701  0.95765022  1
  C  C12  1  0.50000002  0.29689789  0.04193696  1
  C  C13  1  0.50000000  0.29787775  0.20770726  1
  C  C14  1  0.50000000  0.29812193  0.37278496  1
  C  C15  1  0.50000001  0.29610047  0.53957436  1
  C  C16  1  0.50000001  0.29543492  0.70562277  1
  C  C17  1  0.50000000  0.29669391  0.87437368  1
  C  C18  1  0.50000001  0.34502195  0.04081489  1
  C  C19  1  0.50000001  0.34589929  0.20739347  1
  C  C20  1  0.50000000  0.34597564  0.37357473  1
  C  C21  1  0.50000000  0.34443674  0.54085880  1
  C  C22  1  0.50000000  0.34383163  0.70680346  1
  C  C23  1  0.50000000  0.34470318  0.87422898  1
  C  C24  1  0.50000001  0.36907084  0.12390146  1
  C  C25  1  0.50000000  0.36955243  0.29058305  1
  C  C26  1  0.50000000  0.36876900  0.45771679  1
  C  C27  1  0.50000000  0.36812827  0.62405078  1
  C  C28  1  0.50000000  0.36794468  0.79044440  1
  C  C29  1  0.50000000  0.36863408  0.95744590  1
  C  C30  1  0.50000000  0.41689065  0.12411417  1
  C  C31  1  0.50000000  0.41713730  0.29106345  1
  C  C32  1  0.50000001  0.41660720  0.45817201  1
  C  C33  1  0.50000000  0.41619521  0.62453881  1
  C  C34  1  0.49999999  0.41600467  0.79071467  1
  C  C35  1  0.49999999  0.41648534  0.95744057  1
  C  C36  1  0.49999999  0.44043989  0.04077472  1
  C  C37  1  0.49999999  0.44062654  0.20758854  1
  C  C38  1  0.50000000  0.44043528  0.37492966  1
  C  C39  1  0.50000001  0.44023820  0.54163654  1
  C  C40  1  0.49999999  0.44005546  0.70782391  1
  C  C41  1  0.49999999  0.44006909  0.87401337  1
  C  C42  1  0.49999998  0.48818051  0.04112580  1
  C  C43  1  0.49999999  0.48826584  0.20805845  1
  C  C44  1  0.50000001  0.48813778  0.37536901  1
  C  C45  1  0.50000001  0.48807090  0.54207577  1
  C  C46  1  0.50000000  0.48800303  0.70836499  1
  C  C47  1  0.49999999  0.48801677  0.87456181  1
  C  C48  1  0.49999999  0.51185958  0.12466618  1
  C  C49  1  0.50000001  0.51173840  0.29193129  1
  C  C50  1  0.50000002  0.51182018  0.45885519  1
  C  C51  1  0.50000001  0.51196696  0.62542232  1
  C  C52  1  0.50000000  0.51198186  0.79161916  1
  C  C53  1  0.49999999  0.51192103  0.95788830  1
  C  C54  1  0.49999999  0.55955845  0.12505960  1
  C  C55  1  0.50000001  0.55937762  0.29242405  1
  C  C56  1  0.50000001  0.55955726  0.45920598  1
  C  C57  1  0.50000001  0.55991691  0.62595273  1
  C  C58  1  0.50000001  0.55993652  0.79216754  1
  C  C59  1  0.49999999  0.55976094  0.95833173  1
  C  C60  1  0.49999999  0.58338677  0.04183290  1
  C  C61  1  0.50000000  0.58286309  0.20893665  1
  C  C62  1  0.50000000  0.58310926  0.37585719  1
  C  C63  1  0.50000001  0.58350792  0.54254431  1
  C  C64  1  0.50000001  0.58395474  0.70924613  1
  C  C65  1  0.50000000  0.58381319  0.87542809  1
  C  C66  1  0.50000000  0.63122720  0.04228491  1
  C  C67  1  0.50000000  0.63044882  0.20942659  1
  C  C68  1  0.49999999  0.63092605  0.37609657  1
  C  C69  1  0.50000000  0.63136572  0.54257416  1
  C  C70  1  0.50000001  0.63204400  0.70957771  1
  C  C71  1  0.50000000  0.63188603  0.87594650  1
  C  C72  1  0.50000000  0.65402207  0.12642727  1
  C  C73  1  0.49999999  0.65410272  0.29260562  1
  C  C74  1  0.49999999  0.65498309  0.45919732  1
  C  C75  1  0.50000000  0.65528596  0.62580373  1
  C  C76  1  0.50000000  0.65620098  0.79323201  1
  C  C77  1  0.50000000  0.65556700  0.95914872  1
  C  C78  1  0.50000000  0.70187598  0.12722707  1
  C  C79  1  0.50000001  0.70211211  0.29225852  1
  C  C80  1  0.49999999  0.70311225  0.45806196  1
  C  C81  1  0.50000000  0.70330000  0.62566617  1
  C  C82  1  0.49999999  0.70458907  0.79438487  1
  C  C83  1  0.49999999  0.70390199  0.96043853  1
  C  C84  1  0.49999999  0.72485324  0.04471066  1
  C  C85  1  0.50000001  0.72500116  0.20969761  1
  C  C86  1  0.50000000  0.72518466  0.37508940  1
  C  C87  1  0.50000000  0.72731698  0.54233811  1
  C  C88  1  0.50000000  0.72699732  0.70882067  1
  C  C89  1  0.49999998  0.72917414  0.87737946  1
  C  C90  1  0.50000002  0.77494751  0.54381729  1
  C  C91  1  0.50000000  0.77486718  0.70720090  1
  C  C92  1  0.49999995  0.77876847  0.87470568  1
  C  C93  1  0.50000003  0.79805960  0.62344678  1
  C  C94  1  0.49999998  0.79852055  0.78729063  1
  C  C95  1  0.49999995  0.81167548  0.94183737  1
  H  H96  1  0.50000004  0.15354652  0.58187584  1
  H  H97  1  0.50000004  0.16483925  0.71600651  1
  H  H98  1  0.49999994  0.16527623  0.87553538  1
  H  H99  1  0.50000006  0.83472519  0.62447459  1
  H  H100  1  0.49999996  0.83516264  0.78399848  1
  H  H101  1  0.49999996  0.84645357  0.91812979  1
  H  H102  1  0.49999994  0.19131993  0.48526529  1
  H  H103  1  0.49999999  0.23830544  0.12815245  1
  H  H104  1  0.49999999  0.23829388  0.29007415  1
  H  H105  1  0.50000004  0.23919891  0.45076312  1
  H  H106  1  0.49999996  0.76080082  0.04923743  1
  H  H107  1  0.50000001  0.76170130  0.20992577  1
  H  H108  1  0.50000001  0.76169486  0.37182012  1
  H  H109  1  0.49999998  0.79368691  0.48061549  1
  H  H110  1  0.50000002  0.20631708  0.01938426  1
  H  H111  1  0.50000006  0.80868147  0.01473723  1
