# generated using pymatgen
data_HC3
_symmetry_space_group_name_H-M   'P 1'
_cell_length_a   10.00000000
_cell_length_b   25.62946000
_cell_length_c   14.89695463
_cell_angle_alpha   90.00000000
_cell_angle_beta   90.00000000
_cell_angle_gamma   90.00000000
_symmetry_Int_Tables_number   1
_chemical_formula_structural   HC3
_chemical_formula_sum   'H20 C60'
_cell_volume   3818.00902695
_cell_formula_units_Z   20
loop_
 _symmetry_equiv_pos_site_id
 _symmetry_equiv_pos_as_xyz
  1  'x, y, z'
loop_
 _atom_site_type_symbol
 _atom_site_label
 _atom_site_symmetry_multiplicity
 _atom_site_fract_x
 _atom_site_fract_y
 _atom_site_fract_z
 _atom_site_occupancy
  C  C0  1  0.50000024  0.22104874  0.57045137  1
  C  C1  1  0.50000036  0.23065798  0.73192791  1
  C  C2  1  0.50000092  0.23624354  0.89578384  1
  C  C3  1  0.50000006  0.25328163  0.64521576  1
  C  C4  1  0.50000015  0.26079147  0.81033362  1
  C  C5  1  0.50000127  0.26601899  0.97348763  1
  C  C6  1  0.49999936  0.31060678  0.64052839  1
  C  C7  1  0.49999955  0.31710116  0.80473686  1
  C  C8  1  0.50000066  0.32059027  0.96815029  1
  C  C9  1  0.49999652  0.33653320  0.55813255  1
  C  C10  1  0.49999912  0.34247949  0.71855494  1
  C  C11  1  0.49999966  0.34673393  0.88461772  1
  C  C12  1  0.49999363  0.39016674  0.55195388  1
  C  C13  1  0.49999859  0.39907991  0.71172517  1
  C  C14  1  0.49999920  0.40343897  0.87732620  1
  C  C15  1  0.49999694  0.42512398  0.62619452  1
  C  C16  1  0.49999883  0.42938762  0.79231025  1
  C  C17  1  0.49999904  0.43344303  0.95449576  1
  C  C18  1  0.49999940  0.48948604  0.12052542  1
  C  C19  1  0.50000012  0.48923464  0.28637403  1
  C  C20  1  0.50000336  0.48989890  0.45034701  1
  C  C21  1  0.49999815  0.48281559  0.62073585  1
  C  C22  1  0.49999848  0.48534955  0.78841254  1
  C  C23  1  0.49999918  0.48772272  0.95374321  1
  C  C24  1  0.49999954  0.51564057  0.03865238  1
  C  C25  1  0.49999942  0.51562359  0.20398814  1
  C  C26  1  0.50000012  0.51668840  0.36818864  1
  C  C27  1  0.49999938  0.51246246  0.53581231  1
  C  C28  1  0.49999821  0.51214183  0.70269530  1
  C  C29  1  0.49999904  0.51469199  0.87021808  1
  C  C30  1  0.50000009  0.57163642  0.03699287  1
  C  C31  1  0.49999944  0.57161994  0.20374373  1
  C  C32  1  0.49999831  0.57227565  0.36906090  1
  C  C33  1  0.49999795  0.56930530  0.53668472  1
  C  C34  1  0.49999871  0.56931473  0.70315673  1
  C  C35  1  0.49999969  0.57091581  0.86993686  1
  C  C36  1  0.50000007  0.59860933  0.12063139  1
  C  C37  1  0.49999896  0.59939116  0.28614130  1
  C  C38  1  0.49999841  0.59801893  0.45364779  1
  C  C39  1  0.49999855  0.59693434  0.61989808  1
  C  C40  1  0.49999964  0.59828534  0.78669030  1
  C  C41  1  0.50000033  0.59900344  0.95302358  1
  C  C42  1  0.50000084  0.65453506  0.12089102  1
  C  C43  1  0.49999984  0.65536322  0.28598850  1
  C  C44  1  0.49999957  0.65429019  0.45255759  1
  C  C45  1  0.50000023  0.65336253  0.61959110  1
  C  C46  1  0.50000061  0.65519471  0.78760434  1
  C  C47  1  0.50000089  0.65553372  0.95380469  1
  C  C48  1  0.50000149  0.68043827  0.03761422  1
  C  C49  1  0.50000091  0.68184213  0.20319035  1
  C  C50  1  0.50000005  0.68083865  0.37007104  1
  C  C51  1  0.50000075  0.68180680  0.53692807  1
  C  C52  1  0.50000148  0.68123623  0.70224210  1
  C  C53  1  0.50000082  0.68430333  0.87009516  1
  C  C54  1  0.50000262  0.73736743  0.53806902  1
  C  C55  1  0.50000317  0.73721526  0.70014214  1
  C  C56  1  0.50000078  0.74223904  0.86664475  1
  C  C57  1  0.50000390  0.76445802  0.61688009  1
  C  C58  1  0.50000261  0.76507631  0.77938595  1
  C  C59  1  0.49999902  0.78081828  0.93299786  1
  H  H60  1  0.50000061  0.17862626  0.57981242  1
  H  H61  1  0.50000095  0.18800270  0.73775849  1
  H  H62  1  0.50000144  0.19345975  0.89871549  1
  H  H63  1  0.50000503  0.80725111  0.61734103  1
  H  H64  1  0.50000271  0.80780072  0.77494583  1
  H  H65  1  0.49999914  0.82130447  0.90914293  1
  H  H66  1  0.50000028  0.23518396  0.50124853  1
  H  H67  1  0.49999565  0.31456396  0.49519242  1
  H  H68  1  0.49998614  0.40279627  0.48332767  1
  H  H69  1  0.49999933  0.44687498  0.12330098  1
  H  H70  1  0.50000036  0.44642534  0.28712741  1
  H  H71  1  0.50001238  0.44858287  0.43991029  1
  H  H72  1  0.50000260  0.72238397  0.04118818  1
  H  H73  1  0.50000200  0.72466920  0.20262976  1
  H  H74  1  0.50000091  0.72344097  0.36849130  1
  H  H75  1  0.50000269  0.75907870  0.47502189  1
  H  H76  1  0.50000224  0.24705024  0.03944709  1
  H  H77  1  0.50000130  0.34256158  0.03107386  1
  H  H78  1  0.49999883  0.41354066  0.01881187  1
  H  H79  1  0.49999718  0.77752978  0.00558674  1
