# generated using pymatgen
data_HC5
_symmetry_space_group_name_H-M   'P 1'
_cell_length_a   10.00000000
_cell_length_b   29.89204000
_cell_length_c   14.83186570
_cell_angle_alpha   90.00000000
_cell_angle_beta   90.00000000
_cell_angle_gamma   90.00000000
_symmetry_Int_Tables_number   1
_chemical_formula_structural   HC5
_chemical_formula_sum   'H18 C90'
_cell_volume   4433.54722811
_cell_formula_units_Z   18
loop_
 _symmetry_equiv_pos_site_id
 _symmetry_equiv_pos_as_xyz
  1  'x, y, z'
loop_
 _atom_site_type_symbol
 _atom_site_label
 _atom_site_symmetry_multiplicity
 _atom_site_fract_x
 _atom_site_fract_y
 _atom_site_fract_z
 _atom_site_occupancy
  C  C0  1  0.49999954  0.18883952  0.56903879  1
  C  C1  1  0.49999988  0.19732654  0.73105814  1
  C  C2  1  0.50000032  0.20212448  0.89549562  1
  C  C3  1  0.49999980  0.21665398  0.64390456  1
  C  C4  1  0.49999991  0.22322057  0.80973378  1
  C  C5  1  0.50000101  0.22756562  0.97360940  1
  C  C6  1  0.49999979  0.26580897  0.63918825  1
  C  C7  1  0.50000001  0.27147400  0.80412641  1
  C  C8  1  0.50000100  0.27431836  0.96811430  1
  C  C9  1  0.49999910  0.28803548  0.55645258  1
  C  C10  1  0.49999992  0.29313707  0.71755366  1
  C  C11  1  0.50000045  0.29679770  0.88440082  1
  C  C12  1  0.49999867  0.33403230  0.55018717  1
  C  C13  1  0.49999999  0.34162543  0.71081920  1
  C  C14  1  0.50000032  0.34536771  0.87753113  1
  C  C15  1  0.49999958  0.36404756  0.62489201  1
  C  C16  1  0.50000014  0.36751305  0.79206652  1
  C  C17  1  0.50000023  0.37104716  0.95535143  1
  C  C18  1  0.50000000  0.41982788  0.12190105  1
  C  C19  1  0.50000012  0.42010298  0.28705499  1
  C  C20  1  0.50000064  0.42028281  0.45089211  1
  C  C21  1  0.49999989  0.41349090  0.62049918  1
  C  C22  1  0.50000002  0.41541435  0.78843275  1
  C  C23  1  0.50000009  0.41753157  0.95464221  1
  C  C24  1  0.50000003  0.44185433  0.03944107  1
  C  C25  1  0.49999997  0.44290715  0.20468482  1
  C  C26  1  0.50000017  0.44353862  0.36902304  1
  C  C27  1  0.50000007  0.43951578  0.53645982  1
  C  C28  1  0.49999996  0.43843612  0.70279569  1
  C  C29  1  0.50000006  0.44054804  0.87058976  1
  C  C30  1  0.50000002  0.48974127  0.03781456  1
  C  C31  1  0.49999992  0.49085349  0.20429505  1
  C  C32  1  0.49999991  0.49108178  0.37009361  1
  C  C33  1  0.49999989  0.48816342  0.53765334  1
  C  C34  1  0.49999999  0.48713921  0.70344138  1
  C  C35  1  0.50000005  0.48851612  0.87034094  1
  C  C36  1  0.49999997  0.51392414  0.12075839  1
  C  C37  1  0.49999990  0.51463413  0.28720652  1
  C  C38  1  0.49999994  0.51310750  0.45475696  1
  C  C39  1  0.49999994  0.51178098  0.62080592  1
  C  C40  1  0.50000003  0.51168823  0.78657117  1
  C  C41  1  0.50000002  0.51277685  0.95373393  1
  C  C42  1  0.49999998  0.56166680  0.12058778  1
  C  C43  1  0.49999995  0.56212849  0.28737995  1
  C  C44  1  0.49999999  0.56102848  0.45469559  1
  C  C45  1  0.49999999  0.56005037  0.62086303  1
  C  C46  1  0.50000002  0.55994407  0.78695304  1
  C  C47  1  0.49999999  0.56067679  0.95372549  1
  C  C48  1  0.49999998  0.58490438  0.03693411  1
  C  C49  1  0.49999998  0.58554281  0.20382167  1
  C  C50  1  0.49999999  0.58514822  0.37135926  1
  C  C51  1  0.50000000  0.58445300  0.53803292  1
  C  C52  1  0.50000000  0.58399246  0.70398653  1
  C  C53  1  0.50000000  0.58414159  0.87014295  1
  C  C54  1  0.49999997  0.63274225  0.03710405  1
  C  C55  1  0.49999999  0.63321245  0.20396044  1
  C  C56  1  0.50000001  0.63293317  0.37112796  1
  C  C57  1  0.50000000  0.63240469  0.53782081  1
  C  C58  1  0.50000000  0.63207980  0.70410664  1
  C  C59  1  0.49999999  0.63214445  0.87037581  1
  C  C60  1  0.49999997  0.65667570  0.12043775  1
  C  C61  1  0.49999999  0.65669623  0.28762314  1
  C  C62  1  0.50000001  0.65641801  0.45454649  1
  C  C63  1  0.49999999  0.65608772  0.62102013  1
  C  C64  1  0.49999999  0.65599254  0.78726942  1
  C  C65  1  0.49999997  0.65622519  0.95363326  1
  C  C66  1  0.49999998  0.70455665  0.12053799  1
  C  C67  1  0.50000000  0.70458051  0.28751228  1
  C  C68  1  0.50000001  0.70437973  0.45428874  1
  C  C69  1  0.50000000  0.70410921  0.62089337  1
  C  C70  1  0.49999999  0.70404210  0.78736281  1
  C  C71  1  0.49999997  0.70421710  0.95383019  1
  C  C72  1  0.49999998  0.72803142  0.03710399  1
  C  C73  1  0.50000000  0.72818810  0.20400183  1
  C  C74  1  0.50000001  0.72814092  0.37093749  1
  C  C75  1  0.50000000  0.72790928  0.53766101  1
  C  C76  1  0.49999999  0.72778104  0.70414542  1
  C  C77  1  0.49999998  0.72782542  0.87054829  1
  C  C78  1  0.49999999  0.77640124  0.03716919  1
  C  C79  1  0.50000001  0.77657426  0.20396436  1
  C  C80  1  0.50000002  0.77652567  0.37082766  1
  C  C81  1  0.50000001  0.77631213  0.53756847  1
  C  C82  1  0.49999999  0.77621085  0.70410095  1
  C  C83  1  0.49999998  0.77623600  0.87056694  1
  C  C84  1  0.50000000  0.79926447  0.12048491  1
  C  C85  1  0.50000002  0.79933029  0.28741070  1
  C  C86  1  0.50000001  0.79921334  0.45429096  1
  C  C87  1  0.50000000  0.79907999  0.62088902  1
  C  C88  1  0.49999998  0.79904422  0.78732920  1
  C  C89  1  0.49999998  0.79910123  0.95379064  1
  H  H90  1  0.49999950  0.15247868  0.57888385  1
  H  H91  1  0.49999974  0.16073259  0.73713071  1
  H  H92  1  0.50000043  0.16544558  0.89815662  1
  H  H93  1  0.50000000  0.83596500  0.12039038  1
  H  H94  1  0.50000003  0.83603009  0.28756397  1
  H  H95  1  0.50000003  0.83592424  0.45454290  1
  H  H96  1  0.50000000  0.83579017  0.62119726  1
  H  H97  1  0.49999998  0.83574896  0.78738852  1
  H  H98  1  0.49999998  0.83578893  0.95360307  1
  H  H99  1  0.49999975  0.20082293  0.49944410  1
  H  H100  1  0.49999876  0.26905541  0.49332725  1
  H  H101  1  0.49999726  0.34451556  0.48099407  1
  H  H102  1  0.49999999  0.38333910  0.12589653  1
  H  H103  1  0.50000010  0.38340340  0.28753144  1
  H  H104  1  0.50000189  0.38486486  0.44107969  1
  H  H105  1  0.50000121  0.21132001  0.03985611  1
  H  H106  1  0.50000119  0.29327038  0.03103752  1
  H  H107  1  0.50000023  0.35384741  0.01983935  1
