# generated using pymatgen
data_H5C18
_symmetry_space_group_name_H-M   'P 1'
_cell_length_a   10.00000000
_cell_length_b   25.62946000
_cell_length_c   14.87013592
_cell_angle_alpha   90.00000000
_cell_angle_beta   90.00000000
_cell_angle_gamma   90.00000000
_symmetry_Int_Tables_number   1
_chemical_formula_structural   H5C18
_chemical_formula_sum   'H20 C72'
_cell_volume   3811.13553764
_cell_formula_units_Z   4
loop_
 _symmetry_equiv_pos_site_id
 _symmetry_equiv_pos_as_xyz
  1  'x, y, z'
loop_
 _atom_site_type_symbol
 _atom_site_label
 _atom_site_symmetry_multiplicity
 _atom_site_fract_x
 _atom_site_fract_y
 _atom_site_fract_z
 _atom_site_occupancy
  C  C0  1  0.49999933  0.82084945  0.56764731  1
  C  C1  1  0.50000165  0.81134432  0.72946108  1
  C  C2  1  0.50000198  0.80564165  0.89362469  1
  C  C3  1  0.50000011  0.17730731  0.55509397  1
  C  C4  1  0.49999896  0.19288296  0.70895824  1
  C  C5  1  0.49999768  0.19348421  0.87201567  1
  C  C6  1  0.49999936  0.21583927  0.62162656  1
  C  C7  1  0.49999854  0.22060911  0.78851834  1
  C  C8  1  0.49999814  0.22043959  0.95125292  1
  C  C9  1  0.49999958  0.27766768  0.11956843  1
  C  C10  1  0.49999892  0.27761775  0.28590583  1
  C  C11  1  0.49999801  0.27838038  0.45129913  1
  C  C12  1  0.49999900  0.27376804  0.61838221  1
  C  C13  1  0.49999885  0.27650795  0.78641551  1
  C  C14  1  0.49999908  0.27595630  0.95241675  1
  C  C15  1  0.49999953  0.30377214  0.03678865  1
  C  C16  1  0.49999949  0.30399715  0.20288454  1
  C  C17  1  0.49999888  0.30471739  0.36839101  1
  C  C18  1  0.49999879  0.30305244  0.53523758  1
  C  C19  1  0.49999894  0.30269379  0.70089512  1
  C  C20  1  0.49999915  0.30414464  0.86926838  1
  C  C21  1  0.49999966  0.35988524  0.03554645  1
  C  C22  1  0.49999985  0.35998045  0.20243047  1
  C  C23  1  0.49999981  0.36056073  0.36905246  1
  C  C24  1  0.49999949  0.35964078  0.53617782  1
  C  C25  1  0.49999921  0.35941787  0.70144471  1
  C  C26  1  0.49999939  0.36028446  0.86851501  1
  C  C27  1  0.49999989  0.38719209  0.11899907  1
  C  C28  1  0.50000022  0.38730803  0.28548618  1
  C  C29  1  0.49999994  0.38753015  0.45296688  1
  C  C30  1  0.49999968  0.38789035  0.61885029  1
  C  C31  1  0.49999937  0.38772393  0.78470075  1
  C  C32  1  0.49999958  0.38768238  0.95200262  1
  C  C33  1  0.50000023  0.44297209  0.11894736  1
  C  C34  1  0.50000066  0.44262155  0.28534631  1
  C  C35  1  0.50000049  0.44353615  0.45307277  1
  C  C36  1  0.50000023  0.44443472  0.61893714  1
  C  C37  1  0.49999961  0.44425030  0.78455152  1
  C  C38  1  0.49999972  0.44355481  0.95184125  1
  C  C39  1  0.50000011  0.47066306  0.03576887  1
  C  C40  1  0.50000069  0.47007278  0.20233115  1
  C  C41  1  0.50000080  0.46955590  0.36855977  1
  C  C42  1  0.50000059  0.47222992  0.53597885  1
  C  C43  1  0.49999995  0.47300084  0.70154912  1
  C  C44  1  0.49999965  0.47146034  0.86828362  1
  C  C45  1  0.50000037  0.52650672  0.03738896  1
  C  C46  1  0.50000075  0.52601520  0.20273573  1
  C  C47  1  0.50000018  0.52502305  0.36735220  1
  C  C48  1  0.49999989  0.52901417  0.53468918  1
  C  C49  1  0.50000011  0.52997110  0.70092119  1
  C  C50  1  0.50000001  0.52753717  0.86853028  1
  C  C51  1  0.50000061  0.55247903  0.11954324  1
  C  C52  1  0.50000060  0.55241499  0.28532594  1
  C  C53  1  0.49999830  0.55171112  0.44944468  1
  C  C54  1  0.50000020  0.55916829  0.61879797  1
  C  C55  1  0.50000012  0.55684617  0.78650723  1
  C  C56  1  0.50000039  0.55450326  0.95234714  1
  C  C57  1  0.50000068  0.61688343  0.62336091  1
  C  C58  1  0.50000029  0.61273461  0.78999062  1
  C  C59  1  0.50000093  0.60871891  0.95279235  1
  C  C60  1  0.50000229  0.65197397  0.54894483  1
  C  C61  1  0.50000010  0.64294088  0.70910030  1
  C  C62  1  0.50000088  0.63858737  0.87516013  1
  C  C63  1  0.50000132  0.70557049  0.55539441  1
  C  C64  1  0.50000017  0.69952621  0.71606208  1
  C  C65  1  0.50000124  0.69522439  0.88240145  1
  C  C66  1  0.50000007  0.73141415  0.63796571  1
  C  C67  1  0.50000074  0.72487743  0.80240789  1
  C  C68  1  0.50000194  0.72137263  0.96600653  1
  C  C69  1  0.50000037  0.78868670  0.64262413  1
  C  C70  1  0.50000147  0.78118715  0.80800223  1
  C  C71  1  0.50000191  0.77587272  0.97138167  1
  H  H72  1  0.49999979  0.86328558  0.57696848  1
  H  H73  1  0.50000247  0.85401628  0.73520778  1
  H  H74  1  0.50000236  0.84836496  0.89674797  1
  H  H75  1  0.49999955  0.13680207  0.57897905  1
  H  H76  1  0.49999880  0.15016988  0.71313557  1
  H  H77  1  0.49999681  0.15071825  0.87136288  1
  H  H78  1  0.49999771  0.80651637  0.49842643  1
  H  H79  1  0.50000219  0.18079273  0.48241992  1
  H  H80  1  0.49999953  0.23507331  0.12193937  1
  H  H81  1  0.49999877  0.23479687  0.28632651  1
  H  H82  1  0.49999621  0.23644472  0.44737567  1
  H  H83  1  0.50000040  0.59505057  0.12238968  1
  H  H84  1  0.50000078  0.59523575  0.28609867  1
  H  H85  1  0.49999412  0.59303962  0.44030603  1
  H  H86  1  0.50000588  0.63983386  0.47985912  1
  H  H87  1  0.50000251  0.72777906  0.49254929  1
  H  H88  1  0.49999774  0.19850464  0.01421420  1
  H  H89  1  0.50000140  0.62889830  0.01699304  1
  H  H90  1  0.50000246  0.69954792  0.02908485  1
  H  H91  1  0.50000177  0.79477346  0.03744413  1
