# generated using pymatgen
data_H5C24
_symmetry_space_group_name_H-M   'P 1'
_cell_length_a   10.00000000
_cell_length_b   29.89204000
_cell_length_c   14.85058955
_cell_angle_alpha   90.00000000
_cell_angle_beta   90.00000000
_cell_angle_gamma   90.00000000
_symmetry_Int_Tables_number   1
_chemical_formula_structural   H5C24
_chemical_formula_sum   'H20 C96'
_cell_volume   4439.14416733
_cell_formula_units_Z   4
loop_
 _symmetry_equiv_pos_site_id
 _symmetry_equiv_pos_as_xyz
  1  'x, y, z'
loop_
 _atom_site_type_symbol
 _atom_site_label
 _atom_site_symmetry_multiplicity
 _atom_site_fract_x
 _atom_site_fract_y
 _atom_site_fract_z
 _atom_site_occupancy
  C  C0  1  0.49999925  0.84717671  0.56874925  1
  C  C1  1  0.49999950  0.83882587  0.73074533  1
  C  C2  1  0.50000048  0.83381784  0.89513777  1
  C  C3  1  0.50000022  0.15166777  0.55600891  1
  C  C4  1  0.50000012  0.16491167  0.71036934  1
  C  C5  1  0.49999989  0.16556138  0.87388172  1
  C  C6  1  0.50000014  0.18459006  0.62288707  1
  C  C7  1  0.49999999  0.18868464  0.79013970  1
  C  C8  1  0.49999988  0.18875011  0.95324443  1
  C  C9  1  0.49999986  0.23824521  0.12133353  1
  C  C10  1  0.50000002  0.23834921  0.28707413  1
  C  C11  1  0.50000002  0.23850072  0.45210967  1
  C  C12  1  0.50000007  0.23419454  0.61954917  1
  C  C13  1  0.49999998  0.23656240  0.78800095  1
  C  C14  1  0.49999989  0.23633996  0.95422701  1
  C  C15  1  0.49999989  0.26045281  0.03843597  1
  C  C16  1  0.49999996  0.26115781  0.20431419  1
  C  C17  1  0.50000003  0.26149577  0.36953153  1
  C  C18  1  0.50000004  0.25936803  0.53635015  1
  C  C19  1  0.50000003  0.25889844  0.70232276  1
  C  C20  1  0.49999993  0.26033326  0.87092483  1
  C  C21  1  0.49999994  0.30856757  0.03713594  1
  C  C22  1  0.49999998  0.30920461  0.20383974  1
  C  C23  1  0.50000002  0.30936534  0.37014268  1
  C  C24  1  0.50000002  0.30782233  0.53736545  1
  C  C25  1  0.50000001  0.30738233  0.70309213  1
  C  C26  1  0.49999995  0.30834876  0.87042682  1
  C  C27  1  0.49999996  0.33240660  0.12025864  1
  C  C28  1  0.50000000  0.33284894  0.28698521  1
  C  C29  1  0.50000002  0.33217812  0.45421330  1
  C  C30  1  0.50000003  0.33168533  0.62034518  1
  C  C31  1  0.49999998  0.33162629  0.78653007  1
  C  C32  1  0.49999995  0.33219858  0.95360339  1
  C  C33  1  0.49999995  0.38018889  0.11992209  1
  C  C34  1  0.49999997  0.38043590  0.28711534  1
  C  C35  1  0.50000001  0.38008114  0.45436536  1
  C  C36  1  0.50000004  0.37982814  0.62049942  1
  C  C37  1  0.50000000  0.37981254  0.78648232  1
  C  C38  1  0.49999996  0.38007822  0.95312616  1
  C  C39  1  0.49999995  0.40382907  0.03644701  1
  C  C40  1  0.49999996  0.40372566  0.20335081  1
  C  C41  1  0.49999999  0.40378492  0.37090291  1
  C  C42  1  0.50000004  0.40390497  0.53755842  1
  C  C43  1  0.50000003  0.40389096  0.70346265  1
  C  C44  1  0.49999998  0.40388846  0.86957995  1
  C  C45  1  0.49999998  0.45157580  0.03625513  1
  C  C46  1  0.49999995  0.45127377  0.20327430  1
  C  C47  1  0.49999999  0.45151454  0.37087685  1
  C  C48  1  0.50000004  0.45190451  0.53760153  1
  C  C49  1  0.50000004  0.45204545  0.70337751  1
  C  C50  1  0.50000001  0.45196068  0.86939331  1
  C  C51  1  0.49999996  0.47493085  0.11987702  1
  C  C52  1  0.49999996  0.47458453  0.28689484  1
  C  C53  1  0.50000001  0.47545241  0.45425038  1
  C  C54  1  0.50000002  0.47616206  0.62039834  1
  C  C55  1  0.50000003  0.47614705  0.78624478  1
  C  C56  1  0.50000001  0.47556501  0.95290397  1
  C  C57  1  0.49999999  0.52263413  0.12006327  1
  C  C58  1  0.49999993  0.52204689  0.28658851  1
  C  C59  1  0.49999995  0.52336296  0.45407884  1
  C  C60  1  0.49999997  0.52443352  0.62007025  1
  C  C61  1  0.50000006  0.52440648  0.78581844  1
  C  C62  1  0.50000006  0.52343676  0.95295769  1
  C  C63  1  0.50000005  0.54659486  0.03696183  1
  C  C64  1  0.49999995  0.54575890  0.20355557  1
  C  C65  1  0.49999990  0.54550832  0.36951464  1
  C  C66  1  0.49999992  0.54819927  0.53698517  1
  C  C67  1  0.50000003  0.54900907  0.70272905  1
  C  C68  1  0.50000009  0.54761022  0.86953705  1
  C  C69  1  0.50000007  0.59445926  0.03854747  1
  C  C70  1  0.49999993  0.59372048  0.20386969  1
  C  C71  1  0.49999999  0.59305210  0.36826802  1
  C  C72  1  0.49999995  0.59685623  0.53567269  1
  C  C73  1  0.49999997  0.59772719  0.70204690  1
  C  C74  1  0.50000014  0.59557552  0.86971779  1
  C  C75  1  0.50000000  0.61661004  0.12088271  1
  C  C76  1  0.49999995  0.61652693  0.28626995  1
  C  C77  1  0.50000024  0.61617836  0.45017217  1
  C  C78  1  0.49999979  0.62277759  0.61972343  1
  C  C79  1  0.50000005  0.62071714  0.78765660  1
  C  C80  1  0.50000017  0.61863178  0.95363976  1
  C  C81  1  0.49999939  0.67222113  0.62429703  1
  C  C82  1  0.50000007  0.66860900  0.79114457  1
  C  C83  1  0.50000028  0.66507867  0.95422163  1
  C  C84  1  0.49999872  0.70227621  0.54970712  1
  C  C85  1  0.49999968  0.69454297  0.71014380  1
  C  C86  1  0.50000041  0.69070888  0.87646656  1
  C  C87  1  0.49999884  0.74826253  0.55609233  1
  C  C88  1  0.49999957  0.74303955  0.71712630  1
  C  C89  1  0.50000070  0.73923711  0.88370561  1
  C  C90  1  0.49999929  0.77037925  0.63889504  1
  C  C91  1  0.49999986  0.76467025  0.80362561  1
  C  C92  1  0.50000188  0.76157168  0.96749682  1
  C  C93  1  0.49999934  0.81951509  0.64371501  1
  C  C94  1  0.49999982  0.81290851  0.80931681  1
  C  C95  1  0.50000155  0.80830511  0.97305114  1
  H  H96  1  0.49999906  0.88354079  0.57839296  1
  H  H97  1  0.49999970  0.87541382  0.73677370  1
  H  H98  1  0.50000042  0.87043072  0.89830599  1
  H  H99  1  0.50000025  0.11688996  0.57955805  1
  H  H100  1  0.50000011  0.12828447  0.71436705  1
  H  H101  1  0.49999990  0.12888940  0.87325122  1
  H  H102  1  0.49999923  0.83506385  0.49930704  1
  H  H103  1  0.50000027  0.15479046  0.48325695  1
  H  H104  1  0.49999972  0.20170732  0.12412759  1
  H  H105  1  0.50000006  0.20163941  0.28742669  1
  H  H106  1  0.49999995  0.20255889  0.44743987  1
  H  H107  1  0.50000002  0.65311613  0.12429048  1
  H  H108  1  0.49999991  0.65325372  0.28683644  1
  H  H109  1  0.50000090  0.65159765  0.44015498  1
  H  H110  1  0.49999806  0.69168988  0.48067727  1
  H  H111  1  0.49999865  0.76740582  0.49326713  1
  H  H112  1  0.49999992  0.16996058  0.01631422  1
  H  H113  1  0.50000018  0.68223973  0.01866795  1
  H  H114  1  0.50000318  0.74279034  0.03053903  1
  H  H115  1  0.50000206  0.82450505  0.03927613  1
