# generated using pymatgen
data_H3C11
_symmetry_space_group_name_H-M   'P 1'
_cell_length_a   10.00000000
_cell_length_b   25.62946000
_cell_length_c   14.83953355
_cell_angle_alpha   90.00000000
_cell_angle_beta   90.00000000
_cell_angle_gamma   90.00000000
_symmetry_Int_Tables_number   1
_chemical_formula_structural   H3C11
_chemical_formula_sum   'H18 C66'
_cell_volume   3803.29231546
_cell_formula_units_Z   6
loop_
 _symmetry_equiv_pos_site_id
 _symmetry_equiv_pos_as_xyz
  1  'x, y, z'
loop_
 _atom_site_type_symbol
 _atom_site_label
 _atom_site_symmetry_multiplicity
 _atom_site_fract_x
 _atom_site_fract_y
 _atom_site_fract_z
 _atom_site_occupancy
  C  C0  1  0.50000043  0.22102736  0.56840383  1
  C  C1  1  0.50000042  0.23094245  0.73022778  1
  C  C2  1  0.49999987  0.23659846  0.89462613  1
  C  C3  1  0.50000084  0.25350474  0.64313605  1
  C  C4  1  0.50000043  0.26112057  0.80886201  1
  C  C5  1  0.50000096  0.26628721  0.97266499  1
  C  C6  1  0.50000065  0.31081322  0.63834356  1
  C  C7  1  0.50000117  0.31738677  0.80326711  1
  C  C8  1  0.50000231  0.32081063  0.96724685  1
  C  C9  1  0.49999742  0.33672401  0.55564444  1
  C  C10  1  0.50000094  0.34264514  0.71669396  1
  C  C11  1  0.50000202  0.34697871  0.88352032  1
  C  C12  1  0.49999442  0.39038476  0.54941688  1
  C  C13  1  0.50000024  0.39923384  0.70992276  1
  C  C14  1  0.50000183  0.40364291  0.87650514  1
  C  C15  1  0.49999773  0.42532014  0.62402781  1
  C  C16  1  0.50000066  0.42942611  0.79106804  1
  C  C17  1  0.50000163  0.43361219  0.95428633  1
  C  C18  1  0.49999786  0.49055328  0.12060084  1
  C  C19  1  0.49999798  0.49099960  0.28553424  1
  C  C20  1  0.50000115  0.49092742  0.44923810  1
  C  C21  1  0.49999796  0.48296108  0.61921531  1
  C  C22  1  0.49999913  0.48528539  0.78736900  1
  C  C23  1  0.50000003  0.48784995  0.95352964  1
  C  C24  1  0.49999884  0.51623199  0.03830987  1
  C  C25  1  0.49999756  0.51756330  0.20327716  1
  C  C26  1  0.49999832  0.51822274  0.36751649  1
  C  C27  1  0.49999822  0.51319891  0.53487953  1
  C  C28  1  0.49999794  0.51199573  0.70147100  1
  C  C29  1  0.49999907  0.51459164  0.86955819  1
  C  C30  1  0.49999876  0.57216091  0.03663171  1
  C  C31  1  0.49999813  0.57357857  0.20286915  1
  C  C32  1  0.49999724  0.57374886  0.36856544  1
  C  C33  1  0.49999692  0.57007113  0.53603742  1
  C  C34  1  0.49999752  0.56885120  0.70206445  1
  C  C35  1  0.49999820  0.57061985  0.86919793  1
  C  C36  1  0.49999891  0.60046301  0.11934578  1
  C  C37  1  0.49999814  0.60126655  0.28571167  1
  C  C38  1  0.49999748  0.59929692  0.45327910  1
  C  C39  1  0.49999736  0.59744725  0.61935848  1
  C  C40  1  0.49999789  0.59739625  0.78526271  1
  C  C41  1  0.49999857  0.59887106  0.95249552  1
  C  C42  1  0.49999985  0.65639512  0.11917239  1
  C  C43  1  0.49999968  0.65692788  0.28591607  1
  C  C44  1  0.49999920  0.65539848  0.45326892  1
  C  C45  1  0.49999899  0.65389314  0.61945144  1
  C  C46  1  0.49999876  0.65375938  0.78560956  1
  C  C47  1  0.49999905  0.65489684  0.95240572  1
  C  C48  1  0.50000001  0.68320379  0.03541750  1
  C  C49  1  0.50000070  0.68420872  0.20239079  1
  C  C50  1  0.50000045  0.68356899  0.36999314  1
  C  C51  1  0.50000027  0.68234445  0.53675693  1
  C  C52  1  0.49999994  0.68150684  0.70261305  1
  C  C53  1  0.49999930  0.68185717  0.86874613  1
  C  C54  1  0.50000084  0.73967064  0.03538927  1
  C  C55  1  0.50000201  0.74059915  0.20246076  1
  C  C56  1  0.50000246  0.74006349  0.36993688  1
  C  C57  1  0.50000305  0.73889252  0.53666923  1
  C  C58  1  0.50000217  0.73807511  0.70273980  1
  C  C59  1  0.50000041  0.73839208  0.86886347  1
  C  C60  1  0.50000201  0.76669861  0.11860096  1
  C  C61  1  0.50000289  0.76681415  0.28635485  1
  C  C62  1  0.50000389  0.76606875  0.45378306  1
  C  C63  1  0.50000424  0.76511419  0.62003522  1
  C  C64  1  0.50000175  0.76480864  0.78567387  1
  C  C65  1  0.50000075  0.76561948  0.95162696  1
  H  H66  1  0.50000002  0.17863833  0.57848796  1
  H  H67  1  0.49999999  0.18828708  0.73630954  1
  H  H68  1  0.49999887  0.19388155  0.89733368  1
  H  H69  1  0.50000272  0.80950086  0.11761249  1
  H  H70  1  0.50000377  0.80963614  0.28696989  1
  H  H71  1  0.50000510  0.80888491  0.45498782  1
  H  H72  1  0.50000661  0.80789835  0.62071765  1
  H  H73  1  0.50000244  0.80759760  0.78533209  1
  H  H74  1  0.50000120  0.80842375  0.95040888  1
  H  H75  1  0.50000048  0.23499298  0.49884989  1
  H  H76  1  0.49999624  0.31449434  0.49270927  1
  H  H77  1  0.49998670  0.40296801  0.48046963  1
  H  H78  1  0.49999747  0.44798701  0.12447606  1
  H  H79  1  0.49999799  0.44821216  0.28605034  1
  H  H80  1  0.50000846  0.44963980  0.43849841  1
  H  H81  1  0.50000049  0.24725245  0.03879215  1
  H  H82  1  0.50000310  0.34293060  0.03013404  1
  H  H83  1  0.50000258  0.41359269  0.01880154  1
