# generated using pymatgen
data_H4C9
_symmetry_space_group_name_H-M   'P 1'
_cell_length_a   10.00000000
_cell_length_b   17.10430000
_cell_length_c   14.84655799
_cell_angle_alpha   90.00000000
_cell_angle_beta   90.00000000
_cell_angle_gamma   90.00000000
_symmetry_Int_Tables_number   1
_chemical_formula_structural   H4C9
_chemical_formula_sum   'H16 C36'
_cell_volume   2539.39981910
_cell_formula_units_Z   4
loop_
 _symmetry_equiv_pos_site_id
 _symmetry_equiv_pos_as_xyz
  1  'x, y, z'
loop_
 _atom_site_type_symbol
 _atom_site_label
 _atom_site_symmetry_multiplicity
 _atom_site_fract_x
 _atom_site_fract_y
 _atom_site_fract_z
 _atom_site_occupancy
  C  C0  1  0.49999957  0.70928089  0.53216977  1
  C  C1  1  0.50000038  0.71027529  0.69496746  1
  C  C2  1  0.50000016  0.72120081  0.85753115  1
  C  C3  1  0.49999997  0.28880763  0.04264207  1
  C  C4  1  0.50000002  0.28029499  0.21258263  1
  C  C5  1  0.49999991  0.28264792  0.38227426  1
  C  C6  1  0.49999996  0.28912347  0.54975882  1
  C  C7  1  0.50000006  0.29567339  0.71572946  1
  C  C8  1  0.50000005  0.29652892  0.87891942  1
  C  C9  1  0.50000004  0.32174322  0.12969731  1
  C  C10  1  0.49999998  0.31959778  0.29667998  1
  C  C11  1  0.49999994  0.32529585  0.46404935  1
  C  C12  1  0.50000002  0.33203331  0.63107515  1
  C  C13  1  0.50000007  0.33775156  0.79743877  1
  C  C14  1  0.50000002  0.33435837  0.96272829  1
  C  C15  1  0.50000016  0.40626992  0.13195048  1
  C  C16  1  0.50000004  0.40472810  0.29622431  1
  C  C17  1  0.49999998  0.41038142  0.46130785  1
  C  C18  1  0.50000001  0.41686924  0.62947328  1
  C  C19  1  0.50000001  0.42315379  0.79796456  1
  C  C20  1  0.50000005  0.42021511  0.96513036  1
  C  C21  1  0.50000020  0.45067962  0.05198565  1
  C  C22  1  0.50000018  0.44524540  0.21469875  1
  C  C23  1  0.50000002  0.44656053  0.37810026  1
  C  C24  1  0.49999999  0.45513567  0.54484653  1
  C  C25  1  0.50000000  0.46128949  0.71102051  1
  C  C26  1  0.49999996  0.46563853  0.88038422  1
  C  C27  1  0.49999999  0.53710714  0.54289162  1
  C  C28  1  0.50000000  0.54474888  0.70629368  1
  C  C29  1  0.49999987  0.55205675  0.87455262  1
  C  C30  1  0.49999999  0.58264158  0.61997479  1
  C  C31  1  0.49999999  0.58911877  0.78743927  1
  C  C32  1  0.49999975  0.60430582  0.94867490  1
  C  C33  1  0.50000008  0.66858162  0.61276299  1
  C  C34  1  0.50000015  0.67378466  0.77946814  1
  C  C35  1  0.49999995  0.68580679  0.94093952  1
  H  H36  1  0.49999940  0.77335453  0.53314460  1
  H  H37  1  0.50000070  0.77439528  0.69271286  1
  H  H38  1  0.50000030  0.78494482  0.85004245  1
  H  H39  1  0.49999983  0.22499557  0.03485051  1
  H  H40  1  0.50000006  0.21610802  0.21160212  1
  H  H41  1  0.49999986  0.21853104  0.38568527  1
  H  H42  1  0.49999995  0.22503132  0.55372509  1
  H  H43  1  0.50000008  0.23162303  0.71928200  1
  H  H44  1  0.50000007  0.23243595  0.87679523  1
  H  H45  1  0.49999894  0.68123192  0.46599860  1
  H  H46  1  0.50000036  0.51251345  0.06577619  1
  H  H47  1  0.50000029  0.50943454  0.21558847  1
  H  H48  1  0.50000007  0.51028353  0.37243799  1
  H  H49  1  0.49999998  0.56686844  0.47802907  1
  H  H50  1  0.49999954  0.58391346  0.01728029  1
  H  H51  1  0.50000004  0.72092576  0.00272110  1
