# generated using pymatgen
data_HC3
_symmetry_space_group_name_H-M   'P 1'
_cell_length_a   10.00000000
_cell_length_b   21.36688000
_cell_length_c   14.83501075
_cell_angle_alpha   90.00000000
_cell_angle_beta   90.00000000
_cell_angle_gamma   90.00000000
_symmetry_Int_Tables_number   1
_chemical_formula_structural   HC3
_chemical_formula_sum   'H16 C48'
_cell_volume   3169.77894459
_cell_formula_units_Z   16
loop_
 _symmetry_equiv_pos_site_id
 _symmetry_equiv_pos_as_xyz
  1  'x, y, z'
loop_
 _atom_site_type_symbol
 _atom_site_label
 _atom_site_symmetry_multiplicity
 _atom_site_fract_x
 _atom_site_fract_y
 _atom_site_fract_z
 _atom_site_occupancy
  C  C0  1  0.49999889  0.28162317  0.53330487  1
  C  C1  1  0.50000016  0.28203510  0.69583488  1
  C  C2  1  0.50000032  0.27352448  0.85789903  1
  C  C3  1  0.49999968  0.31498900  0.61340411  1
  C  C4  1  0.50000029  0.31162281  0.78001808  1
  C  C5  1  0.50000044  0.30201209  0.94110624  1
  C  C6  1  0.49999956  0.38372814  0.62019402  1
  C  C7  1  0.50000033  0.37948696  0.78754451  1
  C  C8  1  0.50000023  0.36725726  0.94833300  1
  C  C9  1  0.49999899  0.41958630  0.54263557  1
  C  C10  1  0.50000000  0.41484294  0.70605576  1
  C  C11  1  0.50000027  0.40956555  0.87425918  1
  C  C12  1  0.49999989  0.48884005  0.04930454  1
  C  C13  1  0.49999811  0.48982818  0.21281317  1
  C  C14  1  0.49999825  0.48924091  0.37711429  1
  C  C15  1  0.49999908  0.48501875  0.54384164  1
  C  C16  1  0.49999990  0.48181156  0.71008523  1
  C  C17  1  0.50000012  0.47889579  0.87909281  1
  C  C18  1  0.49999927  0.52214710  0.13074557  1
  C  C19  1  0.49999882  0.52195775  0.29473818  1
  C  C20  1  0.49999908  0.51962216  0.45950605  1
  C  C21  1  0.49999973  0.51688697  0.62790835  1
  C  C22  1  0.49999994  0.51337294  0.79655652  1
  C  C23  1  0.49999995  0.51522951  0.96345230  1
  C  C24  1  0.49999996  0.58892964  0.12954068  1
  C  C25  1  0.50000032  0.58934738  0.29510384  1
  C  C26  1  0.50000037  0.58703496  0.46127410  1
  C  C27  1  0.50000020  0.58426433  0.62858690  1
  C  C28  1  0.49999982  0.58166159  0.79596646  1
  C  C29  1  0.49999969  0.58351289  0.96213247  1
  C  C30  1  0.49999993  0.61888424  0.04448238  1
  C  C31  1  0.50000078  0.62242660  0.21219706  1
  C  C32  1  0.50000102  0.62136699  0.37892904  1
  C  C33  1  0.50000084  0.61849140  0.54580906  1
  C  C34  1  0.50000013  0.61575128  0.71274520  1
  C  C35  1  0.49999968  0.61568424  0.87848864  1
  C  C36  1  0.50000007  0.68676393  0.04419116  1
  C  C37  1  0.50000140  0.69003968  0.21185121  1
  C  C38  1  0.50000176  0.68925422  0.37932154  1
  C  C39  1  0.50000134  0.68639686  0.54625847  1
  C  C40  1  0.50000042  0.68376832  0.71267528  1
  C  C41  1  0.49999974  0.68374814  0.87822455  1
  C  C42  1  0.50000092  0.72008723  0.12691237  1
  C  C43  1  0.50000184  0.72161313  0.29586013  1
  C  C44  1  0.50000186  0.71973271  0.46368599  1
  C  C45  1  0.50000090  0.71693083  0.63035695  1
  C  C46  1  0.50000019  0.71569965  0.79545853  1
  C  C47  1  0.49999966  0.71720150  0.96022038  1
  H  H48  1  0.49999842  0.23034266  0.53580954  1
  H  H49  1  0.50000015  0.23072587  0.69408742  1
  H  H50  1  0.50000022  0.22252363  0.85064262  1
  H  H51  1  0.50000120  0.77138537  0.12417236  1
  H  H52  1  0.50000184  0.77299897  0.29634761  1
  H  H53  1  0.50000164  0.77108575  0.46561307  1
  H  H54  1  0.50000082  0.76828607  0.63257979  1
  H  H55  1  0.50000028  0.76704019  0.79569924  1
  H  H56  1  0.49999912  0.76849102  0.95786426  1
  H  H57  1  0.49999855  0.30294354  0.46630488  1
  H  H58  1  0.49999850  0.39535288  0.47805453  1
  H  H59  1  0.50000055  0.43927321  0.06041191  1
  H  H60  1  0.49999702  0.43851719  0.21304386  1
  H  H61  1  0.49999740  0.43820327  0.37300359  1
  H  H62  1  0.50000059  0.27402656  0.00303994  1
  H  H63  1  0.49999957  0.38253926  0.01730508  1
