# generated using pymatgen
data_H11C39
_symmetry_space_group_name_H-M   'P 1'
_cell_length_a   10.00000000
_cell_length_b   29.89204000
_cell_length_c   14.88129396
_cell_angle_alpha   90.00000000
_cell_angle_beta   90.00000000
_cell_angle_gamma   90.00000000
_symmetry_Int_Tables_number   1
_chemical_formula_structural   H11C39
_chemical_formula_sum   'H22 C78'
_cell_volume   4448.32234179
_cell_formula_units_Z   2
loop_
 _symmetry_equiv_pos_site_id
 _symmetry_equiv_pos_as_xyz
  1  'x, y, z'
loop_
 _atom_site_type_symbol
 _atom_site_label
 _atom_site_symmetry_multiplicity
 _atom_site_fract_x
 _atom_site_fract_y
 _atom_site_fract_z
 _atom_site_occupancy
  C  C0  1  0.50000032  0.18939160  0.56533904  1
  C  C1  1  0.50000007  0.19699594  0.72744501  1
  C  C2  1  0.50000007  0.20177848  0.89162363  1
  C  C3  1  0.50000036  0.21659143  0.64080938  1
  C  C4  1  0.50000013  0.22279114  0.80607896  1
  C  C5  1  0.50000037  0.22725023  0.96939695  1
  C  C6  1  0.50000035  0.26568109  0.63659093  1
  C  C7  1  0.50000020  0.27110342  0.80078245  1
  C  C8  1  0.50000065  0.27399038  0.96422090  1
  C  C9  1  0.49999936  0.28785588  0.55419631  1
  C  C10  1  0.50000029  0.29293927  0.71465433  1
  C  C11  1  0.50000036  0.29649969  0.88076666  1
  C  C12  1  0.49999847  0.33382426  0.54777676  1
  C  C13  1  0.50000021  0.34146472  0.70772893  1
  C  C14  1  0.50000037  0.34509135  0.87357938  1
  C  C15  1  0.49999960  0.36389202  0.62218949  1
  C  C16  1  0.50000031  0.36734447  0.78854288  1
  C  C17  1  0.50000026  0.37069386  0.95115996  1
  C  C18  1  0.49999987  0.41848994  0.11835956  1
  C  C19  1  0.49999997  0.41875457  0.28452969  1
  C  C20  1  0.50000076  0.41968539  0.44875933  1
  C  C21  1  0.49999990  0.41338282  0.61784788  1
  C  C22  1  0.50000014  0.41528358  0.78514839  1
  C  C23  1  0.50000015  0.41716320  0.95085721  1
  C  C24  1  0.50000000  0.44085994  0.03618903  1
  C  C25  1  0.49999980  0.44114593  0.20163898  1
  C  C26  1  0.49999995  0.44236986  0.36647415  1
  C  C27  1  0.50000003  0.43923415  0.53393168  1
  C  C28  1  0.50000003  0.43844831  0.69981997  1
  C  C29  1  0.50000013  0.44037338  0.86709327  1
  C  C30  1  0.49999999  0.48871509  0.03451630  1
  C  C31  1  0.49999975  0.48907516  0.20119450  1
  C  C32  1  0.49999955  0.48990156  0.36777859  1
  C  C33  1  0.49999969  0.48795243  0.53517588  1
  C  C34  1  0.49999999  0.48735543  0.70039354  1
  C  C35  1  0.50000009  0.48843069  0.86684510  1
  C  C36  1  0.49999988  0.51228381  0.11781580  1
  C  C37  1  0.49999958  0.51262113  0.28422727  1
  C  C38  1  0.49999965  0.51235265  0.45228482  1
  C  C39  1  0.49999978  0.51199400  0.61798036  1
  C  C40  1  0.50000005  0.51195293  0.78327145  1
  C  C41  1  0.50000005  0.51210991  0.95056865  1
  C  C42  1  0.49999991  0.56000799  0.11792811  1
  C  C43  1  0.49999966  0.55991791  0.28432733  1
  C  C44  1  0.49999973  0.56035564  0.45242084  1
  C  C45  1  0.49999984  0.56061720  0.61815615  1
  C  C46  1  0.50000003  0.56049901  0.78346412  1
  C  C47  1  0.50000001  0.55998351  0.95072062  1
  C  C48  1  0.49999998  0.58344740  0.03466564  1
  C  C49  1  0.49999986  0.58331989  0.20131969  1
  C  C50  1  0.49999969  0.58280400  0.36787952  1
  C  C51  1  0.49999984  0.58476771  0.53548087  1
  C  C52  1  0.50000000  0.58524394  0.70067392  1
  C  C53  1  0.50000001  0.58376107  0.86731883  1
  C  C54  1  0.49999997  0.63126345  0.03665173  1
  C  C55  1  0.49999995  0.63122768  0.20194328  1
  C  C56  1  0.50000007  0.63042124  0.36682026  1
  C  C57  1  0.50000015  0.63349862  0.53441715  1
  C  C58  1  0.50000000  0.63413923  0.70027706  1
  C  C59  1  0.49999999  0.63180682  0.86805201  1
  C  C60  1  0.49999996  0.65375650  0.11874871  1
  C  C61  1  0.50000008  0.65383039  0.28467996  1
  C  C62  1  0.50000066  0.65321146  0.44924701  1
  C  C63  1  0.50000002  0.65930953  0.61830043  1
  C  C64  1  0.49999997  0.65684865  0.78619778  1
  C  C65  1  0.49999999  0.65498689  0.95178026  1
  C  C66  1  0.49999983  0.70898229  0.62307734  1
  C  C67  1  0.49999999  0.70477167  0.79018319  1
  C  C68  1  0.49999999  0.70151770  0.95272675  1
  C  C69  1  0.49999950  0.73974554  0.54969567  1
  C  C70  1  0.49999993  0.73038030  0.70956078  1
  C  C71  1  0.50000005  0.72706602  0.87562390  1
  C  C72  1  0.49999990  0.78635059  0.55793188  1
  C  C73  1  0.49999979  0.77888181  0.71815903  1
  C  C74  1  0.50000003  0.77607724  0.88381916  1
  C  C75  1  0.50000003  0.80641634  0.64113529  1
  C  C76  1  0.49999951  0.79995602  0.80222395  1
  C  C77  1  0.50000073  0.79889392  0.96488112  1
  H  H78  1  0.49999985  0.15296236  0.57360052  1
  H  H79  1  0.49999968  0.16038689  0.73288965  1
  H  H80  1  0.49999991  0.16515663  0.89493963  1
  H  H81  1  0.50000023  0.84285522  0.64914094  1
  H  H82  1  0.49999920  0.83664533  0.80424185  1
  H  H83  1  0.50000073  0.83554566  0.96537247  1
  H  H84  1  0.50000034  0.20216656  0.49653205  1
  H  H85  1  0.49999877  0.26874168  0.49152943  1
  H  H86  1  0.49999592  0.34417464  0.47873030  1
  H  H87  1  0.49999984  0.38196957  0.12140458  1
  H  H88  1  0.50000003  0.38203762  0.28570268  1
  H  H89  1  0.50000272  0.38424188  0.43988183  1
  H  H90  1  0.49999991  0.69026422  0.12158123  1
  H  H91  1  0.50000013  0.69054088  0.28530375  1
  H  H92  1  0.50000203  0.68878581  0.44092645  1
  H  H93  1  0.49999847  0.72980359  0.48028247  1
  H  H94  1  0.50000001  0.80640196  0.49626673  1
  H  H95  1  0.50000040  0.21096970  0.03536674  1
  H  H96  1  0.50000118  0.29258283  0.02738157  1
  H  H97  1  0.50000028  0.35345473  0.01538146  1
  H  H98  1  0.49999988  0.71888673  0.01689770  1
  H  H99  1  0.50000134  0.78254063  0.03057331  1
