# generated using pymatgen
data_HC3
_symmetry_space_group_name_H-M   'P 1'
_cell_length_a   10.00000000
_cell_length_b   29.89204000
_cell_length_c   14.84232142
_cell_angle_alpha   90.00000000
_cell_angle_beta   90.00000000
_cell_angle_gamma   90.00000000
_symmetry_Int_Tables_number   1
_chemical_formula_structural   HC3
_chemical_formula_sum   'H24 C72'
_cell_volume   4436.67265471
_cell_formula_units_Z   24
loop_
 _symmetry_equiv_pos_site_id
 _symmetry_equiv_pos_as_xyz
  1  'x, y, z'
loop_
 _atom_site_type_symbol
 _atom_site_label
 _atom_site_symmetry_multiplicity
 _atom_site_fract_x
 _atom_site_fract_y
 _atom_site_fract_z
 _atom_site_occupancy
  C  C0  1  0.49999922  0.19831896  0.02325853  1
  C  C1  1  0.49999417  0.19718666  0.19103454  1
  C  C2  1  0.49999113  0.19821808  0.35979806  1
  C  C3  1  0.49999098  0.20009151  0.52639010  1
  C  C4  1  0.49999645  0.20113027  0.69123997  1
  C  C5  1  0.50000037  0.20026982  0.85643557  1
  C  C6  1  0.49999547  0.22020980  0.10753404  1
  C  C7  1  0.49998735  0.21973114  0.27498519  1
  C  C8  1  0.49998862  0.22198140  0.44255612  1
  C  C9  1  0.49998873  0.22394175  0.60843489  1
  C  C10  1  0.49999870  0.22391546  0.77407462  1
  C  C11  1  0.49999994  0.22206477  0.94057680  1
  C  C12  1  0.49999439  0.26869627  0.10796418  1
  C  C13  1  0.49998485  0.26806535  0.27470876  1
  C  C14  1  0.49998563  0.27054337  0.44233677  1
  C  C15  1  0.49998561  0.27260212  0.60825079  1
  C  C16  1  0.49999995  0.27250657  0.77399581  1
  C  C17  1  0.49999878  0.27055475  0.94100153  1
  C  C18  1  0.49999659  0.29307087  0.02549344  1
  C  C19  1  0.49999335  0.29164444  0.19173688  1
  C  C20  1  0.49998893  0.29201886  0.35731832  1
  C  C21  1  0.49998416  0.29578196  0.52472196  1
  C  C22  1  0.49999908  0.29685666  0.69086995  1
  C  C23  1  0.49999955  0.29500794  0.85816216  1
  C  C24  1  0.49999634  0.34118774  0.02737082  1
  C  C25  1  0.50000354  0.33981851  0.19216717  1
  C  C26  1  0.50004452  0.33976287  0.35617220  1
  C  C27  1  0.50002822  0.34466690  0.52351681  1
  C  C28  1  0.50000155  0.34563794  0.69052788  1
  C  C29  1  0.50000005  0.34309652  0.85881188  1
  C  C30  1  0.49999786  0.36302405  0.10956885  1
  C  C31  1  0.50003912  0.36286098  0.27401090  1
  C  C32  1  0.50012492  0.36349572  0.43772852  1
  C  C33  1  0.50000146  0.37050450  0.60841767  1
  C  C34  1  0.50000268  0.36825983  0.77676226  1
  C  C35  1  0.50000019  0.36581864  0.94283240  1
  C  C36  1  0.49996858  0.41979578  0.61409951  1
  C  C37  1  0.50001597  0.41611349  0.78087494  1
  C  C38  1  0.50000433  0.41235191  0.94398609  1
  C  C39  1  0.49986865  0.44967717  0.53945976  1
  C  C40  1  0.50001225  0.44213276  0.70010312  1
  C  C41  1  0.50001466  0.43817472  0.86630956  1
  C  C42  1  0.49993589  0.49553441  0.54604454  1
  C  C43  1  0.50001750  0.49050486  0.70734719  1
  C  C44  1  0.50001490  0.48664585  0.87325421  1
  C  C45  1  0.50001417  0.51767507  0.62924636  1
  C  C46  1  0.50001735  0.51263577  0.79367893  1
  C  C47  1  0.50001093  0.50888852  0.95719575  1
  C  C48  1  0.50001602  0.56616159  0.63438879  1
  C  C49  1  0.50001340  0.56073045  0.79971639  1
  C  C50  1  0.50000874  0.55495590  0.96304784  1
  C  C51  1  0.50000477  0.59296854  0.55614277  1
  C  C52  1  0.50001201  0.58769584  0.71948217  1
  C  C53  1  0.50000931  0.58212651  0.88533371  1
  C  C54  1  0.49999417  0.63912342  0.56120620  1
  C  C55  1  0.50000400  0.63560119  0.72498569  1
  C  C56  1  0.50000710  0.63074397  0.89143679  1
  C  C57  1  0.49999641  0.66167808  0.64470231  1
  C  C58  1  0.50000416  0.65712811  0.81172809  1
  C  C59  1  0.50000916  0.65306749  0.97527543  1
  C  C60  1  0.49999332  0.71041032  0.65013720  1
  C  C61  1  0.50000225  0.70506583  0.81744020  1
  C  C62  1  0.50000910  0.69928814  0.98085250  1
  C  C63  1  0.49998865  0.73766648  0.57241748  1
  C  C64  1  0.49999784  0.73127414  0.73619884  1
  C  C65  1  0.50000545  0.72639001  0.90334821  1
  C  C66  1  0.49998902  0.78443072  0.57871006  1
  C  C67  1  0.49999826  0.77944132  0.74260186  1
  C  C68  1  0.50000588  0.77552318  0.90983592  1
  C  C69  1  0.49999380  0.80529100  0.66226108  1
  C  C70  1  0.50000295  0.79997079  0.82775173  1
  C  C71  1  0.50000893  0.79833113  0.99114503  1
  H  H72  1  0.50000061  0.16159202  0.02159238  1
  H  H73  1  0.50000001  0.16049215  0.19051354  1
  H  H74  1  0.49999699  0.16153082  0.36234353  1
  H  H75  1  0.49999632  0.16339732  0.52843210  1
  H  H76  1  0.50000153  0.16443940  0.69093972  1
  H  H77  1  0.50000024  0.16358219  0.85442345  1
  H  H78  1  0.49999409  0.84188819  0.66746187  1
  H  H79  1  0.50000355  0.83662984  0.83130192  1
  H  H80  1  0.50000963  0.83497791  0.99159438  1
  H  H81  1  0.50000220  0.39951491  0.11358121  1
  H  H82  1  0.50004964  0.39957087  0.27371506  1
  H  H83  1  0.50033362  0.39891397  0.42654859  1
  H  H84  1  0.49966051  0.43864392  0.47063223  1
  H  H85  1  0.49988839  0.51449668  0.48310767  1
  H  H86  1  0.50000340  0.57745470  0.48950673  1
  H  H87  1  0.49998453  0.65810558  0.49827272  1
  H  H88  1  0.49998584  0.72250311  0.50538497  1
  H  H89  1  0.49998541  0.80452856  0.51690450  1
  H  H90  1  0.49999927  0.42930616  0.00870833  1
  H  H91  1  0.50001023  0.48998179  0.02020447  1
  H  H92  1  0.50000661  0.57015177  0.03000441  1
  H  H93  1  0.50001206  0.63394171  0.03805262  1
  H  H94  1  0.50001243  0.71481230  0.04760751  1
  H  H95  1  0.50001057  0.78162922  0.05665353  1
