# generated using pymatgen
data_H5C21
_symmetry_space_group_name_H-M   'P 1'
_cell_length_a   10.00000000
_cell_length_b   29.89204000
_cell_length_c   14.85693172
_cell_angle_alpha   90.00000000
_cell_angle_beta   90.00000000
_cell_angle_gamma   90.00000000
_symmetry_Int_Tables_number   1
_chemical_formula_structural   H5C21
_chemical_formula_sum   'H20 C84'
_cell_volume   4441.03997220
_cell_formula_units_Z   4
loop_
 _symmetry_equiv_pos_site_id
 _symmetry_equiv_pos_as_xyz
  1  'x, y, z'
loop_
 _atom_site_type_symbol
 _atom_site_label
 _atom_site_symmetry_multiplicity
 _atom_site_fract_x
 _atom_site_fract_y
 _atom_site_fract_z
 _atom_site_occupancy
  C  C0  1  0.50000019  0.18740815  0.56460838  1
  C  C1  1  0.50000021  0.20067954  0.71886665  1
  C  C2  1  0.49999982  0.20130738  0.88223969  1
  C  C3  1  0.50000020  0.22035242  0.63143154  1
  C  C4  1  0.50000003  0.22446870  0.79854905  1
  C  C5  1  0.49999972  0.22450072  0.96150151  1
  C  C6  1  0.49999991  0.27395504  0.12948195  1
  C  C7  1  0.49999997  0.27390864  0.29541336  1
  C  C8  1  0.50000006  0.27416699  0.46076508  1
  C  C9  1  0.50000012  0.26999827  0.62811646  1
  C  C10  1  0.50000002  0.27237356  0.79640217  1
  C  C11  1  0.49999984  0.27209838  0.96248187  1
  C  C12  1  0.49999989  0.29620178  0.04665177  1
  C  C13  1  0.49999994  0.29671866  0.21259229  1
  C  C14  1  0.50000002  0.29698997  0.37798479  1
  C  C15  1  0.50000009  0.29516059  0.54491572  1
  C  C16  1  0.50000008  0.29476051  0.71083545  1
  C  C17  1  0.49999995  0.29612867  0.87927416  1
  C  C18  1  0.49999994  0.34432120  0.04536905  1
  C  C19  1  0.49999998  0.34474480  0.21210636  1
  C  C20  1  0.50000003  0.34483759  0.37868252  1
  C  C21  1  0.50000006  0.34361573  0.54605360  1
  C  C22  1  0.50000004  0.34330376  0.71180245  1
  C  C23  1  0.49999997  0.34419621  0.87892872  1
  C  C24  1  0.49999998  0.36803000  0.12850473  1
  C  C25  1  0.50000002  0.36817733  0.29544083  1
  C  C26  1  0.50000004  0.36773795  0.46274678  1
  C  C27  1  0.50000004  0.36758769  0.62908569  1
  C  C28  1  0.49999999  0.36758350  0.79522842  1
  C  C29  1  0.49999996  0.36804055  0.96196728  1
  C  C30  1  0.50000002  0.41583987  0.12822409  1
  C  C31  1  0.50000006  0.41569000  0.29563890  1
  C  C32  1  0.50000004  0.41563250  0.46289713  1
  C  C33  1  0.50000001  0.41580202  0.62943874  1
  C  C34  1  0.49999997  0.41589238  0.79540823  1
  C  C35  1  0.49999997  0.41604370  0.96153540  1
  C  C36  1  0.50000000  0.43966185  0.04477602  1
  C  C37  1  0.50000008  0.43893804  0.21205359  1
  C  C38  1  0.50000006  0.43906186  0.37924552  1
  C  C39  1  0.50000002  0.43953721  0.54612828  1
  C  C40  1  0.49999998  0.43999641  0.71259609  1
  C  C41  1  0.49999999  0.44011378  0.87844488  1
  C  C42  1  0.50000005  0.48757577  0.04472317  1
  C  C43  1  0.50000013  0.48638494  0.21222703  1
  C  C44  1  0.50000010  0.48678741  0.37889201  1
  C  C45  1  0.50000002  0.48745754  0.54592929  1
  C  C46  1  0.49999998  0.48832280  0.71291522  1
  C  C47  1  0.50000004  0.48845532  0.87859495  1
  C  C48  1  0.50000010  0.50976371  0.12920468  1
  C  C49  1  0.50000013  0.50996293  0.29535782  1
  C  C50  1  0.50000007  0.51067458  0.46191393  1
  C  C51  1  0.50000000  0.51159427  0.62924377  1
  C  C52  1  0.49999999  0.51299645  0.79587477  1
  C  C53  1  0.50000008  0.51229521  0.96164513  1
  C  C54  1  0.49999986  0.55730629  0.13020660  1
  C  C55  1  0.50000013  0.55792555  0.29479502  1
  C  C56  1  0.50000007  0.55853898  0.46010312  1
  C  C57  1  0.49999996  0.55959716  0.62890844  1
  C  C58  1  0.50000005  0.56176451  0.79641941  1
  C  C59  1  0.49999993  0.56099566  0.96273043  1
  C  C60  1  0.49999940  0.58036613  0.04816521  1
  C  C61  1  0.49999995  0.58069975  0.21230015  1
  C  C62  1  0.50000016  0.58075536  0.37780818  1
  C  C63  1  0.49999992  0.58264740  0.54499431  1
  C  C64  1  0.49999997  0.58475222  0.71084943  1
  C  C65  1  0.50000017  0.58686376  0.87846605  1
  C  C66  1  0.49999970  0.62911253  0.54412532  1
  C  C67  1  0.49999986  0.63268048  0.70696852  1
  C  C68  1  0.50000059  0.63631044  0.87361954  1
  C  C69  1  0.49999953  0.65485239  0.62163154  1
  C  C70  1  0.50000025  0.65864469  0.78780083  1
  C  C71  1  0.50000138  0.66640380  0.94799758  1
  C  C72  1  0.49999933  0.70342350  0.61417093  1
  C  C73  1  0.50000045  0.70713350  0.78065718  1
  C  C74  1  0.50000132  0.71237340  0.94146121  1
  C  C75  1  0.49999803  0.72580859  0.53040558  1
  C  C76  1  0.50000011  0.72885184  0.69423474  1
  C  C77  1  0.50000086  0.73445434  0.85877891  1
  C  C78  1  0.49999811  0.77256519  0.52500380  1
  C  C79  1  0.50000021  0.77712236  0.68864234  1
  C  C80  1  0.50000096  0.78353077  0.85418501  1
  C  C81  1  0.49999940  0.79808438  0.60288543  1
  C  C82  1  0.50000079  0.80298157  0.76726187  1
  C  C83  1  0.50000095  0.81106944  0.92928189  1
  H  H84  1  0.50000024  0.15261704  0.58810136  1
  H  H85  1  0.50000025  0.16405414  0.72294833  1
  H  H86  1  0.49999978  0.16462731  0.88157039  1
  H  H87  1  0.49999954  0.83473157  0.59977754  1
  H  H88  1  0.50000072  0.83956712  0.76138638  1
  H  H89  1  0.50000095  0.84745067  0.92008422  1
  H  H90  1  0.50000007  0.19052706  0.49188389  1
  H  H91  1  0.49999992  0.23744171  0.13218911  1
  H  H92  1  0.50000001  0.23720230  0.29576369  1
  H  H93  1  0.50000004  0.23820787  0.45650888  1
  H  H94  1  0.49999825  0.61580739  0.05784109  1
  H  H95  1  0.49999992  0.61742093  0.21176804  1
  H  H96  1  0.50000020  0.61725985  0.37440255  1
  H  H97  1  0.49999974  0.64622309  0.47966613  1
  H  H98  1  0.49999646  0.70707701  0.46725525  1
  H  H99  1  0.49999698  0.78881646  0.45886887  1
  H  H100  1  0.49999957  0.20568668  0.02450979  1
  H  H101  1  0.50000237  0.65577238  0.01695654  1
  H  H102  1  0.50000190  0.73151930  0.00419318  1
  H  H103  1  0.50000069  0.79875010  -0.00147075  1
