# generated using pymatgen
data_HC3
_symmetry_space_group_name_H-M   'P 1'
_cell_length_a   10.00000000
_cell_length_b   21.36688000
_cell_length_c   14.87747485
_cell_angle_alpha   90.00000000
_cell_angle_beta   90.00000000
_cell_angle_gamma   90.00000000
_symmetry_Int_Tables_number   1
_chemical_formula_structural   HC3
_chemical_formula_sum   'H16 C48'
_cell_volume   3178.85219891
_cell_formula_units_Z   16
loop_
 _symmetry_equiv_pos_site_id
 _symmetry_equiv_pos_as_xyz
  1  'x, y, z'
loop_
 _atom_site_type_symbol
 _atom_site_label
 _atom_site_symmetry_multiplicity
 _atom_site_fract_x
 _atom_site_fract_y
 _atom_site_fract_z
 _atom_site_occupancy
  C  C0  1  0.50000027  0.26438146  0.56178086  1
  C  C1  1  0.50000039  0.28319206  0.71554903  1
  C  C2  1  0.49999976  0.28393815  0.87848348  1
  C  C3  1  0.50000029  0.31062602  0.62818747  1
  C  C4  1  0.50000018  0.31648538  0.79499048  1
  C  C5  1  0.49999981  0.31632918  0.95755523  1
  C  C6  1  0.49999927  0.38489730  0.12543822  1
  C  C7  1  0.49999892  0.38437969  0.29163760  1
  C  C8  1  0.49999960  0.38516033  0.45670465  1
  C  C9  1  0.50000009  0.38006329  0.62463253  1
  C  C10  1  0.50000032  0.38355550  0.79282802  1
  C  C11  1  0.50000001  0.38296580  0.95860229  1
  C  C12  1  0.49999981  0.41634549  0.04287540  1
  C  C13  1  0.49999919  0.41617468  0.20895561  1
  C  C14  1  0.49999931  0.41695197  0.37394275  1
  C  C15  1  0.49999982  0.41464100  0.54077983  1
  C  C16  1  0.50000019  0.41480828  0.70724384  1
  C  C17  1  0.50000037  0.41671584  0.87564378  1
  C  C18  1  0.50000013  0.48390152  0.04170177  1
  C  C19  1  0.49999985  0.48343281  0.20871173  1
  C  C20  1  0.49999973  0.48409916  0.37447333  1
  C  C21  1  0.49999976  0.48247036  0.54158697  1
  C  C22  1  0.49999997  0.48294101  0.70803123  1
  C  C23  1  0.50000031  0.48421811  0.87531441  1
  C  C24  1  0.50000028  0.51590176  0.12552282  1
  C  C25  1  0.50000015  0.51656888  0.29129024  1
  C  C26  1  0.49999988  0.51609621  0.45828627  1
  C  C27  1  0.49999970  0.51582966  0.62464262  1
  C  C28  1  0.50000004  0.51707026  0.79193171  1
  C  C29  1  0.50000024  0.51753871  0.95840944  1
  C  C30  1  0.50000069  0.58305310  0.12605955  1
  C  C31  1  0.50000081  0.58382900  0.29105261  1
  C  C32  1  0.50000020  0.58363638  0.45712634  1
  C  C33  1  0.49999964  0.58329112  0.62437960  1
  C  C34  1  0.49999982  0.58519696  0.79275962  1
  C  C35  1  0.50000019  0.58536098  0.95922646  1
  C  C36  1  0.50000041  0.61484459  0.04329882  1
  C  C37  1  0.50000109  0.61562305  0.20836993  1
  C  C38  1  0.50000074  0.61510852  0.37456787  1
  C  C39  1  0.50000000  0.61698861  0.54144836  1
  C  C40  1  0.49999968  0.61645315  0.70718605  1
  C  C41  1  0.49999991  0.61993751  0.87537575  1
  C  C42  1  0.50000019  0.68365511  0.54245336  1
  C  C43  1  0.49999982  0.68351035  0.70500832  1
  C  C44  1  0.49999970  0.68937024  0.87180918  1
  C  C45  1  0.50000023  0.71605642  0.62151502  1
  C  C46  1  0.49999960  0.71680245  0.78444457  1
  C  C47  1  0.49999971  0.73561653  0.93821172  1
  H  H48  1  0.50000048  0.21583440  0.58581781  1
  H  H49  1  0.50000037  0.23197232  0.71964648  1
  H  H50  1  0.49999993  0.23263939  0.87771534  1
  H  H51  1  0.50000005  0.76735149  0.62229141  1
  H  H52  1  0.49999961  0.76801646  0.78034441  1
  H  H53  1  0.49999951  0.78416505  0.91417992  1
  H  H54  1  0.50000016  0.26849895  0.48912117  1
  H  H55  1  0.49999894  0.33378230  0.12771411  1
  H  H56  1  0.49999864  0.33299982  0.29217099  1
  H  H57  1  0.49999972  0.33485742  0.45184623  1
  H  H58  1  0.50000029  0.66514151  0.04815062  1
  H  H59  1  0.50000137  0.66700703  0.20783056  1
  H  H60  1  0.50000107  0.66622226  0.37226725  1
  H  H61  1  0.50000015  0.70971424  0.47932840  1
  H  H62  1  0.49999986  0.29027771  0.02067281  1
  H  H63  1  0.49999983  0.73150568  0.01087575  1
