# generated using pymatgen
data_HC3
_symmetry_space_group_name_H-M   'P 1'
_cell_length_a   10.00000000
_cell_length_b   29.89204000
_cell_length_c   14.89884049
_cell_angle_alpha   90.00000000
_cell_angle_beta   90.00000000
_cell_angle_gamma   90.00000000
_symmetry_Int_Tables_number   1
_chemical_formula_structural   HC3
_chemical_formula_sum   'H26 C78'
_cell_volume   4453.56735828
_cell_formula_units_Z   26
loop_
 _symmetry_equiv_pos_site_id
 _symmetry_equiv_pos_as_xyz
  1  'x, y, z'
loop_
 _atom_site_type_symbol
 _atom_site_label
 _atom_site_symmetry_multiplicity
 _atom_site_fract_x
 _atom_site_fract_y
 _atom_site_fract_z
 _atom_site_occupancy
  C  C0  1  0.49998951  0.83434050  0.50681179  1
  C  C1  1  0.49999716  0.83612224  0.66953543  1
  C  C2  1  0.50000784  0.84153907  0.83411876  1
  C  C3  1  0.50000302  0.15067833  0.57809139  1
  C  C4  1  0.49999612  0.16450427  0.73125948  1
  C  C5  1  0.49999779  0.16515978  0.89346800  1
  C  C6  1  0.50000054  0.18395214  0.64395825  1
  C  C7  1  0.50000036  0.18848887  0.81024006  1
  C  C8  1  0.50000839  0.18840115  0.97216339  1
  C  C9  1  0.50003667  0.23665643  0.13951265  1
  C  C10  1  0.50002128  0.23569152  0.30640847  1
  C  C11  1  0.49999979  0.23665096  0.47203812  1
  C  C12  1  0.50000095  0.23357688  0.63990428  1
  C  C13  1  0.50001428  0.23644835  0.80773610  1
  C  C14  1  0.50003167  0.23601822  0.97294914  1
  C  C15  1  0.50004475  0.25953124  0.05723992  1
  C  C16  1  0.50005327  0.25843600  0.22359934  1
  C  C17  1  0.50001743  0.25897121  0.38882414  1
  C  C18  1  0.50000062  0.25802872  0.55586853  1
  C  C19  1  0.50000564  0.25865960  0.72223751  1
  C  C20  1  0.50004166  0.26037100  0.89025045  1
  C  C21  1  0.50005946  0.30774972  0.05602156  1
  C  C22  1  0.50006933  0.30642522  0.22346188  1
  C  C23  1  0.50002417  0.30693237  0.38907553  1
  C  C24  1  0.50000553  0.30652914  0.55651863  1
  C  C25  1  0.49999796  0.30737581  0.72299928  1
  C  C26  1  0.50005332  0.30873617  0.88979882  1
  C  C27  1  0.50005777  0.32973846  0.14059649  1
  C  C28  1  0.50003098  0.33010444  0.30596221  1
  C  C29  1  0.50001370  0.33002628  0.47262123  1
  C  C30  1  0.50000116  0.33064569  0.63963301  1
  C  C31  1  0.49999904  0.33226824  0.80640853  1
  C  C32  1  0.50005933  0.33241068  0.97301028  1
  C  C33  1  0.49983290  0.37740851  0.14150597  1
  C  C34  1  0.49998608  0.37810039  0.30565828  1
  C  C35  1  0.50001355  0.37802787  0.47096932  1
  C  C36  1  0.50000004  0.37881645  0.63937993  1
  C  C37  1  0.49998906  0.38113799  0.80694419  1
  C  C38  1  0.49987755  0.38115110  0.97393214  1
  C  C39  1  0.49948855  0.40044929  0.05939857  1
  C  C40  1  0.49984881  0.40083970  0.22340400  1
  C  C41  1  0.50000408  0.40045779  0.38910094  1
  C  C42  1  0.50000195  0.40199341  0.55587650  1
  C  C43  1  0.49998767  0.40397734  0.72124383  1
  C  C44  1  0.49998997  0.40644921  0.88874672  1
  C  C45  1  0.49999132  0.44846852  0.55497869  1
  C  C46  1  0.49993472  0.45193926  0.71714805  1
  C  C47  1  0.50012788  0.45578291  0.88293178  1
  C  C48  1  0.49994860  0.47424073  0.63225710  1
  C  C49  1  0.49994328  0.47808078  0.79735211  1
  C  C50  1  0.50054574  0.48585390  0.95707214  1
  C  C51  1  0.49995449  0.52272720  0.62506455  1
  C  C52  1  0.49991673  0.52656638  0.79016146  1
  C  C53  1  0.50023744  0.53170350  0.95062799  1
  C  C54  1  0.49998430  0.54496244  0.54133095  1
  C  C55  1  0.49993388  0.54876743  0.70424855  1
  C  C56  1  0.49991184  0.55384609  0.86783789  1
  C  C57  1  0.49999335  0.59104964  0.53539661  1
  C  C58  1  0.49995286  0.59685555  0.69808757  1
  C  C59  1  0.49990940  0.60233281  0.86273173  1
  C  C60  1  0.49998027  0.61823889  0.61278302  1
  C  C61  1  0.49994529  0.62384181  0.77794048  1
  C  C62  1  0.49994472  0.62923948  0.94065474  1
  C  C63  1  0.49998777  0.66685987  0.60666697  1
  C  C64  1  0.49998053  0.67180212  0.77249984  1
  C  C65  1  0.49998844  0.67538950  0.93561651  1
  C  C66  1  0.49998659  0.68914952  0.52312346  1
  C  C67  1  0.49999167  0.69326529  0.68603601  1
  C  C68  1  0.49999543  0.69794204  0.85240421  1
  C  C69  1  0.49998780  0.73535771  0.51740468  1
  C  C70  1  0.49999824  0.74118051  0.68012887  1
  C  C71  1  0.50000873  0.74665636  0.84673688  1
  C  C72  1  0.49999412  0.76248613  0.59453491  1
  C  C73  1  0.50000428  0.76745840  0.76093131  1
  C  C74  1  0.50001562  0.77405392  0.92396325  1
  C  C75  1  0.49999359  0.81160663  0.58788506  1
  C  C76  1  0.50000338  0.81560473  0.75432138  1
  C  C77  1  0.50001500  0.82081260  0.91744298  1
  H  H78  1  0.49998870  0.87099653  0.50637312  1
  H  H79  1  0.49999497  0.87279714  0.66614366  1
  H  H80  1  0.50000500  0.87810469  0.82843296  1
  H  H81  1  0.50000094  0.11607867  0.60263087  1
  H  H82  1  0.49999408  0.12789901  0.73599596  1
  H  H83  1  0.49998824  0.12847967  0.89273462  1
  H  H84  1  0.49998835  0.81748947  0.44169638  1
  H  H85  1  0.50000838  0.15334240  0.50552628  1
  H  H86  1  0.50001222  0.20010997  0.14067344  1
  H  H87  1  0.49999330  0.19897308  0.30699778  1
  H  H88  1  0.49998814  0.20065857  0.46811762  1
  H  H89  1  0.49861564  0.43590310  0.06979007  1
  H  H90  1  0.49980219  0.43755388  0.22285485  1
  H  H91  1  0.49998510  0.43697438  0.38640239  1
  H  H92  1  0.50001583  0.46551591  0.49061968  1
  H  H93  1  0.49999834  0.52602181  0.47858895  1
  H  H94  1  0.50001034  0.60628984  0.46870422  1
  H  H95  1  0.49998068  0.66996659  0.46069246  1
  H  H96  1  0.49998229  0.75082620  0.45086743  1
  H  H97  1  0.50000128  0.16976799  0.03516490  1
  H  H98  1  0.50145822  0.47510036  0.02568411  1
  H  H99  1  0.50042874  0.55053461  0.01343813  1
  H  H100  1  0.49994037  0.61377654  0.00709155  1
  H  H101  1  0.50001372  0.69427778  -0.00155150  1
  H  H102  1  0.50001892  0.75893097  -0.00924014  1
  H  H103  1  0.50001804  0.84104919  -0.02121459  1
