# generated using pymatgen
data_H2C5
_symmetry_space_group_name_H-M   'P 1'
_cell_length_a   10.00000000
_cell_length_b   25.62946000
_cell_length_c   14.95071259
_cell_angle_alpha   90.00000000
_cell_angle_beta   90.00000000
_cell_angle_gamma   90.00000000
_symmetry_Int_Tables_number   1
_chemical_formula_structural   H2C5
_chemical_formula_sum   'H24 C60'
_cell_volume   3831.78690252
_cell_formula_units_Z   12
loop_
 _symmetry_equiv_pos_site_id
 _symmetry_equiv_pos_as_xyz
  1  'x, y, z'
loop_
 _atom_site_type_symbol
 _atom_site_label
 _atom_site_symmetry_multiplicity
 _atom_site_fract_x
 _atom_site_fract_y
 _atom_site_fract_z
 _atom_site_occupancy
  C  C0  1  0.49999510  0.82084781  0.56293365  1
  C  C1  1  0.49999360  0.81166178  0.72410751  1
  C  C2  1  0.49999642  0.80598486  0.88719880  1
  C  C3  1  0.50000441  0.17915218  0.56293372  1
  C  C4  1  0.50000605  0.18833827  0.72410711  1
  C  C5  1  0.50000381  0.19401505  0.88719892  1
  C  C6  1  0.50000500  0.21109132  0.63780489  1
  C  C7  1  0.50000510  0.21856704  0.80215397  1
  C  C8  1  0.50000180  0.22372125  0.96463017  1
  C  C9  1  0.50000402  0.26841599  0.63363411  1
  C  C10  1  0.50000439  0.27491176  0.79682369  1
  C  C11  1  0.50000163  0.27827121  0.95953734  1
  C  C12  1  0.50000161  0.29436371  0.55182771  1
  C  C13  1  0.50000408  0.30036604  0.71117607  1
  C  C14  1  0.50000295  0.30451659  0.87642317  1
  C  C15  1  0.49999950  0.34803249  0.54565493  1
  C  C16  1  0.50000283  0.35703082  0.70443126  1
  C  C17  1  0.50000224  0.36125653  0.86941268  1
  C  C18  1  0.50000106  0.38326422  0.61941111  1
  C  C19  1  0.50000218  0.38737746  0.78477507  1
  C  C20  1  0.50000123  0.39078844  0.94702523  1
  C  C21  1  0.50000026  0.44563646  0.11498262  1
  C  C22  1  0.50000061  0.44472988  0.28041525  1
  C  C23  1  0.50000119  0.44755955  0.44595532  1
  C  C24  1  0.50000060  0.44131910  0.61480971  1
  C  C25  1  0.50000094  0.44349794  0.78124589  1
  C  C26  1  0.50000054  0.44497457  0.94728653  1
  C  C27  1  0.50000017  0.47194894  0.03355384  1
  C  C28  1  0.50000022  0.47167539  0.19861955  1
  C  C29  1  0.50000047  0.47218650  0.36190724  1
  C  C30  1  0.50000046  0.47120913  0.53043293  1
  C  C31  1  0.50000040  0.47096334  0.69577360  1
  C  C32  1  0.50000040  0.47192337  0.86366501  1
  C  C33  1  0.49999988  0.52805106  0.03355382  1
  C  C34  1  0.49999986  0.52832461  0.19861956  1
  C  C35  1  0.49999949  0.52781353  0.36190721  1
  C  C36  1  0.49999951  0.52879087  0.53043290  1
  C  C37  1  0.49999957  0.52903668  0.69577357  1
  C  C38  1  0.49999962  0.52807663  0.86366504  1
  C  C39  1  0.49999979  0.55436354  0.11498260  1
  C  C40  1  0.49999941  0.55527011  0.28041528  1
  C  C41  1  0.49999861  0.55244046  0.44595534  1
  C  C42  1  0.49999936  0.55868103  0.61480973  1
  C  C43  1  0.49999905  0.55650205  0.78124591  1
  C  C44  1  0.49999948  0.55502544  0.94728652  1
  C  C45  1  0.49999887  0.61673572  0.61941114  1
  C  C46  1  0.49999783  0.61262248  0.78477510  1
  C  C47  1  0.49999890  0.60921155  0.94702525  1
  C  C48  1  0.50000048  0.65196724  0.54565487  1
  C  C49  1  0.49999707  0.64296921  0.70443128  1
  C  C50  1  0.49999793  0.63874348  0.86941272  1
  C  C51  1  0.49999807  0.70563660  0.55182773  1
  C  C52  1  0.49999571  0.69963393  0.71117616  1
  C  C53  1  0.49999727  0.69548340  0.87642325  1
  C  C54  1  0.49999553  0.73158391  0.63363383  1
  C  C55  1  0.49999556  0.72508824  0.79682372  1
  C  C56  1  0.49999900  0.72172877  0.95953737  1
  C  C57  1  0.49999450  0.78890864  0.63780484  1
  C  C58  1  0.49999482  0.78143299  0.80215396  1
  C  C59  1  0.49999883  0.77627876  0.96463002  1
  H  H60  1  0.49999500  0.86331103  0.57167089  1
  H  H61  1  0.49999324  0.85431814  0.73012941  1
  H  H62  1  0.49999636  0.84874108  0.88997125  1
  H  H63  1  0.50000459  0.13668883  0.57167082  1
  H  H64  1  0.50000642  0.14568175  0.73012960  1
  H  H65  1  0.50000381  0.15125894  0.88997127  1
  H  H66  1  0.49999641  0.80630458  0.49423240  1
  H  H67  1  0.50000324  0.19369540  0.49423249  1
  H  H68  1  0.50000068  0.27233810  0.48916004  1
  H  H69  1  0.49999534  0.35988839  0.47691952  1
  H  H70  1  0.50000053  0.40302149  0.11778198  1
  H  H71  1  0.50000097  0.40187873  0.28059030  1
  H  H72  1  0.50000314  0.40611963  0.43862012  1
  H  H73  1  0.49999949  0.59697850  0.11778197  1
  H  H74  1  0.49999902  0.59812129  0.28059029  1
  H  H75  1  0.49999632  0.59388043  0.43862017  1
  H  H76  1  0.50000503  0.64011171  0.47691956  1
  H  H77  1  0.49999905  0.72766199  0.48916034  1
  H  H78  1  0.50000012  0.20457473  0.03017921  1
  H  H79  1  0.49999989  0.30009974  0.02233689  1
  H  H80  1  0.50000112  0.37052721  0.01079905  1
  H  H81  1  0.49999898  0.62947278  0.01079903  1
  H  H82  1  0.50000112  0.69990029  0.02233688  1
  H  H83  1  0.50000087  0.79542529  0.03017921  1
