# generated using pymatgen
data_HC3
_symmetry_space_group_name_H-M   'P 1'
_cell_length_a   10.00000000
_cell_length_b   21.36688000
_cell_length_c   14.84322628
_cell_angle_alpha   90.00000000
_cell_angle_beta   90.00000000
_cell_angle_gamma   90.00000000
_symmetry_Int_Tables_number   1
_chemical_formula_structural   HC3
_chemical_formula_sum   'H18 C54'
_cell_volume   3171.53434673
_cell_formula_units_Z   18
loop_
 _symmetry_equiv_pos_site_id
 _symmetry_equiv_pos_as_xyz
  1  'x, y, z'
loop_
 _atom_site_type_symbol
 _atom_site_label
 _atom_site_symmetry_multiplicity
 _atom_site_fract_x
 _atom_site_fract_y
 _atom_site_fract_z
 _atom_site_occupancy
  C  C0  1  0.49999940  0.78433970  0.56757125  1
  C  C1  1  0.50000065  0.77262715  0.72955533  1
  C  C2  1  0.50000105  0.76582159  0.89402378  1
  C  C3  1  0.49999692  0.22953883  0.03338235  1
  C  C4  1  0.49999689  0.22770964  0.20120877  1
  C  C5  1  0.49999792  0.22898597  0.37024041  1
  C  C6  1  0.49999856  0.23188146  0.53688146  1
  C  C7  1  0.49999843  0.23356704  0.70156294  1
  C  C8  1  0.49999745  0.23230633  0.86667368  1
  C  C9  1  0.49999774  0.26001120  0.11775765  1
  C  C10  1  0.49999823  0.25906993  0.28530390  1
  C  C11  1  0.49999890  0.26234721  0.45288555  1
  C  C12  1  0.49999896  0.26543558  0.61874159  1
  C  C13  1  0.49999820  0.26547133  0.78435341  1
  C  C14  1  0.49999774  0.26283048  0.95075105  1
  C  C15  1  0.49999972  0.32783859  0.11807078  1
  C  C16  1  0.50000021  0.32671787  0.28485875  1
  C  C17  1  0.50000004  0.33030069  0.45245930  1
  C  C18  1  0.49999945  0.33351940  0.61836445  1
  C  C19  1  0.49999890  0.33348675  0.78418928  1
  C  C20  1  0.49999902  0.33066140  0.95112973  1
  C  C21  1  0.50000009  0.36207664  0.03564741  1
  C  C22  1  0.50000101  0.35981078  0.20188629  1
  C  C23  1  0.50000094  0.36026185  0.36736804  1
  C  C24  1  0.50000005  0.36573185  0.53473756  1
  C  C25  1  0.49999949  0.36750657  0.70095112  1
  C  C26  1  0.49999941  0.36498721  0.86831180  1
  C  C27  1  0.50000137  0.42943116  0.03742100  1
  C  C28  1  0.50000253  0.42721926  0.20225335  1
  C  C29  1  0.50000241  0.42706626  0.36618957  1
  C  C30  1  0.50000086  0.43407171  0.53348922  1
  C  C31  1  0.49999998  0.43576228  0.70040734  1
  C  C32  1  0.50000040  0.43233185  0.86877256  1
  C  C33  1  0.50000273  0.45983416  0.11972394  1
  C  C34  1  0.50000318  0.45941952  0.28405181  1
  C  C35  1  0.50000263  0.46037415  0.44758345  1
  C  C36  1  0.50000019  0.47037284  0.61812956  1
  C  C37  1  0.50000045  0.46752802  0.78661594  1
  C  C38  1  0.50000119  0.46401456  0.95284817  1
  C  C39  1  0.50000008  0.53954700  0.62329513  1
  C  C40  1  0.50000112  0.53451696  0.79041426  1
  C  C41  1  0.50000167  0.52918530  0.95365685  1
  C  C42  1  0.49999885  0.58136467  0.54869361  1
  C  C43  1  0.50000098  0.57077416  0.70925800  1
  C  C44  1  0.50000156  0.56529671  0.87595721  1
  C  C45  1  0.49999967  0.64574111  0.55481140  1
  C  C46  1  0.50000127  0.63862304  0.71598744  1
  C  C47  1  0.50000165  0.63335172  0.88284914  1
  C  C48  1  0.50000102  0.67680093  0.63760322  1
  C  C49  1  0.50000129  0.66890093  0.80261316  1
  C  C50  1  0.50000192  0.66479213  0.96651185  1
  C  C51  1  0.50000061  0.74554739  0.64246181  1
  C  C52  1  0.50000100  0.73642946  0.80823838  1
  C  C53  1  0.50000153  0.73020772  0.97205013  1
  H  H54  1  0.49999896  0.83523136  0.57704704  1
  H  H55  1  0.49999985  0.82380728  0.73560273  1
  H  H56  1  0.50000080  0.81710163  0.89688518  1
  H  H57  1  0.49999590  0.17819332  0.03134254  1
  H  H58  1  0.49999503  0.17639451  0.20045670  1
  H  H59  1  0.49999654  0.17764086  0.37304478  1
  H  H60  1  0.49999784  0.18055417  0.53954212  1
  H  H61  1  0.49999825  0.18223252  0.70122015  1
  H  H62  1  0.49999706  0.18095674  0.86484639  1
  H  H63  1  0.49999944  0.76731388  0.49816371  1
  H  H64  1  0.50000388  0.51090217  0.12379952  1
  H  H65  1  0.50000349  0.51078455  0.28385862  1
  H  H66  1  0.50000435  0.50988866  0.43604122  1
  H  H67  1  0.49999655  0.56584358  0.47994754  1
  H  H68  1  0.49999890  0.67226358  0.49171505  1
  H  H69  1  0.50000210  0.55310461  0.01817644  1
  H  H70  1  0.50000212  0.63821784  0.02935965  1
  H  H71  1  0.50000145  0.75304180  0.03819549  1
