# generated using pymatgen
data_HC3
_symmetry_space_group_name_H-M   'P 1'
_cell_length_a   10.00000000
_cell_length_b   29.89204000
_cell_length_c   14.90603416
_cell_angle_alpha   90.00000000
_cell_angle_beta   90.00000000
_cell_angle_gamma   90.00000000
_symmetry_Int_Tables_number   1
_chemical_formula_structural   HC3
_chemical_formula_sum   'H26 C78'
_cell_volume   4455.71769245
_cell_formula_units_Z   26
loop_
 _symmetry_equiv_pos_site_id
 _symmetry_equiv_pos_as_xyz
  1  'x, y, z'
loop_
 _atom_site_type_symbol
 _atom_site_label
 _atom_site_symmetry_multiplicity
 _atom_site_fract_x
 _atom_site_fract_y
 _atom_site_fract_z
 _atom_site_occupancy
  C  C0  1  0.49999821  0.83573587  0.51683849  1
  C  C1  1  0.49999951  0.83668355  0.67924293  1
  C  C2  1  0.50000109  0.84107603  0.84401563  1
  C  C3  1  0.50000105  0.15202368  0.58105325  1
  C  C4  1  0.49999955  0.16081245  0.74248142  1
  C  C5  1  0.49999970  0.16667563  0.90634615  1
  C  C6  1  0.50000071  0.17982864  0.65547182  1
  C  C7  1  0.49999988  0.18706485  0.82027444  1
  C  C8  1  0.50000104  0.19271464  0.98332517  1
  C  C9  1  0.50000069  0.22894026  0.64965080  1
  C  C10  1  0.50000068  0.23526438  0.81337576  1
  C  C11  1  0.50000193  0.23939170  0.97663087  1
  C  C12  1  0.49999647  0.25069772  0.56679090  1
  C  C13  1  0.50000077  0.25665475  0.72687315  1
  C  C14  1  0.50000124  0.26106311  0.89246699  1
  C  C15  1  0.49999272  0.29663411  0.55921104  1
  C  C16  1  0.50000054  0.30517158  0.71866605  1
  C  C17  1  0.50000114  0.30947463  0.88370888  1
  C  C18  1  0.49999806  0.32714206  0.63277874  1
  C  C19  1  0.50000091  0.33145774  0.79865216  1
  C  C20  1  0.50000052  0.33524988  0.96047708  1
  C  C21  1  0.50000062  0.38222797  0.12619788  1
  C  C22  1  0.50000201  0.38134056  0.29272326  1
  C  C23  1  0.50000625  0.38229363  0.45723459  1
  C  C24  1  0.49999983  0.37669612  0.62731929  1
  C  C25  1  0.50000036  0.37940566  0.79440865  1
  C  C26  1  0.50000071  0.38161858  0.95937753  1
  C  C27  1  0.50000084  0.40501712  0.04449751  1
  C  C28  1  0.50000124  0.40401643  0.21026887  1
  C  C29  1  0.50000220  0.40490172  0.37462989  1
  C  C30  1  0.50000127  0.40204607  0.54243998  1
  C  C31  1  0.50000002  0.40213866  0.70893545  1
  C  C32  1  0.50000096  0.40480785  0.87593688  1
  C  C33  1  0.50000145  0.45290540  0.04274846  1
  C  C34  1  0.50000129  0.45189516  0.21017686  1
  C  C35  1  0.49999961  0.45256194  0.37535763  1
  C  C36  1  0.49999917  0.45083231  0.54328217  1
  C  C37  1  0.49999985  0.45115136  0.70952118  1
  C  C38  1  0.50000139  0.45303440  0.87573223  1
  C  C39  1  0.50000146  0.47502385  0.12726163  1
  C  C40  1  0.49999984  0.47575574  0.29252767  1
  C  C41  1  0.49999944  0.47491395  0.45962205  1
  C  C42  1  0.49999925  0.47483663  0.62649537  1
  C  C43  1  0.50000014  0.47644315  0.79245044  1
  C  C44  1  0.50000169  0.47694209  0.95906104  1
  C  C45  1  0.49999656  0.52257326  0.12797722  1
  C  C46  1  0.49999930  0.52367033  0.29225174  1
  C  C47  1  0.49999981  0.52295948  0.45795928  1
  C  C48  1  0.49999947  0.52320009  0.62615764  1
  C  C49  1  0.49999993  0.52539823  0.79302158  1
  C  C50  1  0.49999758  0.52555056  0.95991751  1
  C  C51  1  0.49998844  0.54505557  0.04536395  1
  C  C52  1  0.49999679  0.54628807  0.20973567  1
  C  C53  1  0.49999994  0.54560969  0.37618080  1
  C  C54  1  0.49999965  0.54673058  0.54292914  1
  C  C55  1  0.49999966  0.54847007  0.70780648  1
  C  C56  1  0.50000004  0.55063127  0.87483786  1
  C  C57  1  0.49999965  0.59330215  0.54238065  1
  C  C58  1  0.49999857  0.59649982  0.70419232  1
  C  C59  1  0.50000308  0.59990337  0.86982603  1
  C  C60  1  0.49999869  0.61905639  0.61963018  1
  C  C61  1  0.49999894  0.62242151  0.78466487  1
  C  C62  1  0.50001232  0.62968516  0.94434213  1
  C  C63  1  0.49999843  0.66769318  0.61322075  1
  C  C64  1  0.49999861  0.67094710  0.77837071  1
  C  C65  1  0.50000522  0.67549596  0.93872152  1
  C  C66  1  0.49999760  0.69037798  0.53005822  1
  C  C67  1  0.49999869  0.69339562  0.69280225  1
  C  C68  1  0.49999851  0.69788026  0.85656726  1
  C  C69  1  0.49999760  0.73662089  0.52513156  1
  C  C70  1  0.49999883  0.74150474  0.68776014  1
  C  C71  1  0.49999920  0.74641706  0.85317855  1
  C  C72  1  0.49999844  0.76330649  0.60277160  1
  C  C73  1  0.49999933  0.76766089  0.76844807  1
  C  C74  1  0.50000121  0.77299054  0.93154041  1
  C  C75  1  0.49999869  0.81248991  0.59726774  1
  C  C76  1  0.50000001  0.81576837  0.76341122  1
  C  C77  1  0.50000201  0.81977309  0.92673745  1
  H  H78  1  0.49999824  0.87238712  0.51755128  1
  H  H79  1  0.49999982  0.87334592  0.67665496  1
  H  H80  1  0.50000134  0.87766487  0.83952661  1
  H  H81  1  0.50000047  0.11564077  0.59029737  1
  H  H82  1  0.49999863  0.12428220  0.74909851  1
  H  H83  1  0.49999874  0.13006450  0.91063987  1
  H  H84  1  0.49999760  0.81936701  0.45128789  1
  H  H85  1  0.50000211  0.16428575  0.51200379  1
  H  H86  1  0.49999387  0.23113648  0.50474513  1
  H  H87  1  0.49998142  0.30676076  0.49008236  1
  H  H88  1  0.50000008  0.34570910  0.12828834  1
  H  H89  1  0.50000170  0.34463979  0.29333059  1
  H  H90  1  0.50001729  0.34675484  0.44807113  1
  H  H91  1  0.49996711  0.58043342  0.05557102  1
  H  H92  1  0.49999639  0.58301175  0.20876614  1
  H  H93  1  0.50000009  0.58213110  0.37397511  1
  H  H94  1  0.50000031  0.61038177  0.47807065  1
  H  H95  1  0.49999687  0.67176265  0.46696972  1
  H  H96  1  0.49999685  0.75252516  0.45901590  1
  H  H97  1  0.50000154  0.17700300  0.04974942  1
  H  H98  1  0.50000349  0.25884042  0.03869761  1
  H  H99  1  0.49999993  0.31833347  0.02480454  1
  H  H100  1  0.50003330  0.61899843  0.01286145  1
  H  H101  1  0.50000902  0.69421318  0.00163496  1
  H  H102  1  0.50000221  0.75731666  -0.00226871  1
  H  H103  1  0.50000341  0.83942233  -0.01112640  1
