# generated using pymatgen
data_H13C33
_symmetry_space_group_name_H-M   'P 1'
_cell_length_a   10.00000000
_cell_length_b   29.89204000
_cell_length_c   14.85624643
_cell_angle_alpha   90.00000000
_cell_angle_beta   90.00000000
_cell_angle_gamma   90.00000000
_symmetry_Int_Tables_number   1
_chemical_formula_structural   H13C33
_chemical_formula_sum   'H26 C66'
_cell_volume   4440.83512550
_cell_formula_units_Z   2
loop_
 _symmetry_equiv_pos_site_id
 _symmetry_equiv_pos_as_xyz
  1  'x, y, z'
loop_
 _atom_site_type_symbol
 _atom_site_label
 _atom_site_symmetry_multiplicity
 _atom_site_fract_x
 _atom_site_fract_y
 _atom_site_fract_z
 _atom_site_occupancy
  C  C0  1  0.50003135  0.19798835  0.06204334  1
  C  C1  1  0.50002767  0.19320051  0.23174208  1
  C  C2  1  0.50001147  0.19434937  0.40117366  1
  C  C3  1  0.50000173  0.19787302  0.56886506  1
  C  C4  1  0.49999787  0.20140578  0.73484632  1
  C  C5  1  0.50003507  0.20203328  0.89839084  1
  C  C6  1  0.50000677  0.21692424  0.14900290  1
  C  C7  1  0.50000642  0.21564998  0.31587841  1
  C  C8  1  0.50000563  0.21860227  0.48314645  1
  C  C9  1  0.49999834  0.22235155  0.65031564  1
  C  C10  1  0.50000059  0.22545454  0.81667318  1
  C  C11  1  0.50002920  0.22390525  0.98201909  1
  C  C12  1  0.49990176  0.26527317  0.15118506  1
  C  C13  1  0.49998006  0.26433999  0.31560923  1
  C  C14  1  0.50000402  0.26728065  0.48055034  1
  C  C15  1  0.49999717  0.27086066  0.64880464  1
  C  C16  1  0.49999394  0.27436844  0.81695791  1
  C  C17  1  0.49994800  0.27304864  0.98423912  1
  C  C18  1  0.49978180  0.29054480  0.07101275  1
  C  C19  1  0.49991007  0.28751127  0.23411101  1
  C  C20  1  0.49999587  0.28817639  0.39766875  1
  C  C21  1  0.49999780  0.29282001  0.56432456  1
  C  C22  1  0.49999197  0.29635018  0.73033261  1
  C  C23  1  0.49999759  0.29891212  0.89903167  1
  C  C24  1  0.49998994  0.33955614  0.56250838  1
  C  C25  1  0.49996873  0.34413633  0.72570421  1
  C  C26  1  0.50006021  0.34818289  0.89277198  1
  C  C27  1  0.49996980  0.36577482  0.63982868  1
  C  C28  1  0.49998029  0.37019516  0.80643250  1
  C  C29  1  0.50024516  0.37787373  0.96743782  1
  C  C30  1  0.49996837  0.41433821  0.63287565  1
  C  C31  1  0.49997117  0.41852377  0.79898567  1
  C  C32  1  0.50014156  0.42378297  0.96055229  1
  C  C33  1  0.49997540  0.43659809  0.54901804  1
  C  C34  1  0.49996561  0.44044869  0.71237151  1
  C  C35  1  0.49998904  0.44573143  0.87702569  1
  C  C36  1  0.49998042  0.48268403  0.54289594  1
  C  C37  1  0.49997407  0.48853348  0.70601707  1
  C  C38  1  0.49997527  0.49418338  0.87132178  1
  C  C39  1  0.49998075  0.50995377  0.62044448  1
  C  C40  1  0.49997792  0.51556877  0.78606293  1
  C  C41  1  0.49998865  0.52119975  0.94921240  1
  C  C42  1  0.49998531  0.55858633  0.61425949  1
  C  C43  1  0.49999146  0.56349049  0.78020003  1
  C  C44  1  0.50000515  0.56728271  0.94362502  1
  C  C45  1  0.49998134  0.58095591  0.53056062  1
  C  C46  1  0.49999138  0.58509780  0.69379877  1
  C  C47  1  0.50000439  0.58964426  0.86000278  1
  C  C48  1  0.49998213  0.62712652  0.52506496  1
  C  C49  1  0.49999507  0.63301487  0.68808238  1
  C  C50  1  0.50001105  0.63817057  0.85439820  1
  C  C51  1  0.49998903  0.65439217  0.60252476  1
  C  C52  1  0.50000338  0.65953130  0.76899992  1
  C  C53  1  0.50002042  0.66518550  0.93230888  1
  C  C54  1  0.49998928  0.70312367  0.59651593  1
  C  C55  1  0.50000395  0.70755352  0.76364304  1
  C  C56  1  0.50001988  0.71139005  0.92715772  1
  C  C57  1  0.49998145  0.72573294  0.51314556  1
  C  C58  1  0.49999684  0.72888790  0.67692345  1
  C  C59  1  0.50001116  0.73374067  0.84383417  1
  C  C60  1  0.49998226  0.77254577  0.50828208  1
  C  C61  1  0.49999754  0.77710310  0.67194820  1
  C  C62  1  0.50000941  0.78293563  0.83869528  1
  C  C63  1  0.49999075  0.79813819  0.58622580  1
  C  C64  1  0.50000383  0.80246003  0.75153052  1
  C  C65  1  0.50001218  0.81038239  0.91391121  1
  H  H66  1  0.50004452  0.16146214  0.05469844  1
  H  H67  1  0.50005627  0.15647660  0.23077332  1
  H  H68  1  0.50001692  0.15764774  0.40399215  1
  H  H69  1  0.50000095  0.16119607  0.57256654  1
  H  H70  1  0.50000338  0.16473474  0.73782443  1
  H  H71  1  0.50005225  0.16533105  0.89703324  1
  H  H72  1  0.49999172  0.83478885  0.58290154  1
  H  H73  1  0.50000358  0.83908199  0.74632466  1
  H  H74  1  0.50001079  0.84682452  0.90573610  1
  H  H75  1  0.49946380  0.32594424  0.08440161  1
  H  H76  1  0.49988561  0.32422386  0.23515884  1
  H  H77  1  0.49998831  0.32467694  0.39218177  1
  H  H78  1  0.50000154  0.35632446  0.49756941  1
  H  H79  1  0.49997726  0.41753960  0.48623667  1
  H  H80  1  0.49998407  0.49767668  0.47579462  1
  H  H81  1  0.49997589  0.56191755  0.46774241  1
  H  H82  1  0.49997708  0.64242070  0.45827632  1
  H  H83  1  0.49997484  0.70669055  0.45036194  1
  H  H84  1  0.49997654  0.78888862  0.44224129  1
  H  H85  1  0.50058891  0.36631337  0.03600644  1
  H  H86  1  0.50023928  0.44296049  0.02319255  1
  H  H87  1  0.49998632  0.50590393  0.01602692  1
  H  H88  1  0.50001864  0.58642449  0.00627815  1
  H  H89  1  0.50002730  0.64973034  -0.00105174  1
  H  H90  1  0.50002649  0.73058160  -0.01013061  1
  H  H91  1  0.50001462  0.79759713  -0.01716744  1
