# generated using pymatgen
data_H2C7
_symmetry_space_group_name_H-M   'P 1'
_cell_length_a   10.00000000
_cell_length_b   29.89204000
_cell_length_c   14.84016772
_cell_angle_alpha   90.00000000
_cell_angle_beta   90.00000000
_cell_angle_gamma   90.00000000
_symmetry_Int_Tables_number   1
_chemical_formula_structural   H2C7
_chemical_formula_sum   'H24 C84'
_cell_volume   4436.02887073
_cell_formula_units_Z   12
loop_
 _symmetry_equiv_pos_site_id
 _symmetry_equiv_pos_as_xyz
  1  'x, y, z'
loop_
 _atom_site_type_symbol
 _atom_site_label
 _atom_site_symmetry_multiplicity
 _atom_site_fract_x
 _atom_site_fract_y
 _atom_site_fract_z
 _atom_site_occupancy
  C  C0  1  0.49999194  0.83466211  0.50714055  1
  C  C1  1  0.49999715  0.83629583  0.67056997  1
  C  C2  1  0.50000576  0.84138259  0.83614690  1
  C  C3  1  0.50000091  0.16366071  0.05567418  1
  C  C4  1  0.50000075  0.16295212  0.22297886  1
  C  C5  1  0.49999945  0.16301344  0.39071681  1
  C  C6  1  0.49999919  0.16387614  0.55778874  1
  C  C7  1  0.49999918  0.16456893  0.72385981  1
  C  C8  1  0.50000028  0.16435847  0.88951716  1
  C  C9  1  0.50000265  0.18595056  0.13947026  1
  C  C10  1  0.50000104  0.18540607  0.30688941  1
  C  C11  1  0.49999960  0.18612237  0.47398612  1
  C  C12  1  0.49999936  0.18720237  0.64061343  1
  C  C13  1  0.50000014  0.18754434  0.80678966  1
  C  C14  1  0.50000240  0.18693655  0.97277904  1
  C  C15  1  0.50000687  0.23438322  0.13937755  1
  C  C16  1  0.50000433  0.23373846  0.30694969  1
  C  C17  1  0.50000044  0.23451784  0.47395243  1
  C  C18  1  0.49999957  0.23570234  0.64073448  1
  C  C19  1  0.50000248  0.23605996  0.80687885  1
  C  C20  1  0.50000641  0.23542600  0.97268855  1
  C  C21  1  0.50000846  0.25855922  0.05609606  1
  C  C22  1  0.50000931  0.25716531  0.22346405  1
  C  C23  1  0.50000306  0.25754375  0.39022000  1
  C  C24  1  0.49999973  0.25877040  0.55697437  1
  C  C25  1  0.50000072  0.25979471  0.72382896  1
  C  C26  1  0.50000774  0.25978970  0.88997879  1
  C  C27  1  0.50001038  0.30665960  0.05604206  1
  C  C28  1  0.50001171  0.30487053  0.22360031  1
  C  C29  1  0.50000363  0.30547392  0.38995739  1
  C  C30  1  0.50000040  0.30677461  0.55676888  1
  C  C31  1  0.49999973  0.30807545  0.72398480  1
  C  C32  1  0.50001018  0.30820799  0.89000667  1
  C  C33  1  0.50000933  0.32852815  0.14074211  1
  C  C34  1  0.50000507  0.32856756  0.30645485  1
  C  C35  1  0.50000190  0.32967450  0.47264067  1
  C  C36  1  0.49999995  0.33102364  0.64002668  1
  C  C37  1  0.50000064  0.33261066  0.80712458  1
  C  C38  1  0.50001114  0.33177400  0.97325917  1
  C  C39  1  0.49996851  0.37614221  0.14177368  1
  C  C40  1  0.49999794  0.37658661  0.30597862  1
  C  C41  1  0.50000232  0.37761424  0.47087457  1
  C  C42  1  0.49999975  0.37903140  0.63952329  1
  C  C43  1  0.49999911  0.38133941  0.80747151  1
  C  C44  1  0.49997880  0.38059526  0.97433770  1
  C  C45  1  0.49990714  0.39965678  0.06005377  1
  C  C46  1  0.49997283  0.39943907  0.22379279  1
  C  C47  1  0.50000152  0.39966908  0.38867566  1
  C  C48  1  0.49999974  0.40195026  0.55554507  1
  C  C49  1  0.49999798  0.40418920  0.72151743  1
  C  C50  1  0.49999966  0.40641110  0.88957462  1
  C  C51  1  0.49999686  0.44842366  0.55443318  1
  C  C52  1  0.49998804  0.45209031  0.71739149  1
  C  C53  1  0.50002432  0.45575319  0.88394807  1
  C  C54  1  0.49998912  0.47426378  0.63205293  1
  C  C55  1  0.49999068  0.47813167  0.79801033  1
  C  C56  1  0.50009949  0.48572088  0.95840729  1
  C  C57  1  0.49998898  0.52274100  0.62492547  1
  C  C58  1  0.49998610  0.52658109  0.79074882  1
  C  C59  1  0.50004657  0.53157632  0.95198952  1
  C  C60  1  0.49999212  0.54499713  0.54092147  1
  C  C61  1  0.49998677  0.54878019  0.70445010  1
  C  C62  1  0.49998770  0.55380249  0.86885803  1
  C  C63  1  0.49999299  0.59108618  0.53504965  1
  C  C64  1  0.49998977  0.59686954  0.69832884  1
  C  C65  1  0.49998731  0.60225837  0.86364305  1
  C  C66  1  0.49999248  0.61830173  0.61271091  1
  C  C67  1  0.49999087  0.62380870  0.77850970  1
  C  C68  1  0.49999696  0.62914836  0.94183740  1
  C  C69  1  0.49999392  0.66693568  0.60663603  1
  C  C70  1  0.49999719  0.67175753  0.77300392  1
  C  C71  1  0.50000560  0.67527415  0.93668582  1
  C  C72  1  0.49999184  0.68930806  0.52285070  1
  C  C73  1  0.49999654  0.69332574  0.68636169  1
  C  C74  1  0.50000331  0.69783892  0.85319944  1
  C  C75  1  0.49999136  0.73554120  0.51727584  1
  C  C76  1  0.49999770  0.74129162  0.68064186  1
  C  C77  1  0.50000566  0.74652890  0.84784477  1
  C  C78  1  0.49999445  0.76268190  0.59478549  1
  C  C79  1  0.50000160  0.76750439  0.76188567  1
  C  C80  1  0.50001005  0.77369357  0.92565132  1
  C  C81  1  0.49999424  0.81185529  0.58845020  1
  C  C82  1  0.50000140  0.81567765  0.75563525  1
  C  C83  1  0.50001011  0.82044284  0.91961980  1
  H  H84  1  0.49999175  0.87132048  0.50639268  1
  H  H85  1  0.49999661  0.87297515  0.66724252  1
  H  H86  1  0.50000592  0.87796590  0.83133277  1
  H  H87  1  0.49999841  0.12695773  0.05462085  1
  H  H88  1  0.49999900  0.12623166  0.22237419  1
  H  H89  1  0.49999857  0.12632604  0.39157508  1
  H  H90  1  0.49999900  0.12717083  0.55880767  1
  H  H91  1  0.49999905  0.12786058  0.72428252  1
  H  H92  1  0.49999892  0.12764200  0.88890617  1
  H  H93  1  0.49999069  0.81775113  0.44186148  1
  H  H94  1  0.49975289  0.43508785  0.07095185  1
  H  H95  1  0.49996551  0.43614074  0.22358672  1
  H  H96  1  0.49999870  0.43616009  0.38491446  1
  H  H97  1  0.50000056  0.46536971  0.48973638  1
  H  H98  1  0.49999362  0.52613844  0.47782769  1
  H  H99  1  0.49999401  0.60619169  0.46798760  1
  H  H100  1  0.49998939  0.67016172  0.46010470  1
  H  H101  1  0.49998810  0.75088137  0.45034289  1
  H  H102  1  0.50025976  0.47465445  0.02713608  1
  H  H103  1  0.50008077  0.55030759  0.01519260  1
  H  H104  1  0.49999847  0.61365254  0.00850118  1
  H  H105  1  0.50001369  0.69423047  -0.00033872  1
  H  H106  1  0.50001268  0.75839666  -0.00745696  1
  H  H107  1  0.50001354  0.84041195  -0.01841799  1
