# generated using pymatgen
data_H3C17
_symmetry_space_group_name_H-M   'P 1'
_cell_length_a   10.00000000
_cell_length_b   29.89204000
_cell_length_c   14.82893699
_cell_angle_alpha   90.00000000
_cell_angle_beta   90.00000000
_cell_angle_gamma   90.00000000
_symmetry_Int_Tables_number   1
_chemical_formula_structural   H3C17
_chemical_formula_sum   'H18 C102'
_cell_volume   4432.67177679
_cell_formula_units_Z   6
loop_
 _symmetry_equiv_pos_site_id
 _symmetry_equiv_pos_as_xyz
  1  'x, y, z'
loop_
 _atom_site_type_symbol
 _atom_site_label
 _atom_site_symmetry_multiplicity
 _atom_site_fract_x
 _atom_site_fract_y
 _atom_site_fract_z
 _atom_site_occupancy
  C  C0  1  0.49999972  0.84713077  0.56940885  1
  C  C1  1  0.49999981  0.83856258  0.73147367  1
  C  C2  1  0.50000023  0.83372512  0.89600327  1
  C  C3  1  0.49999999  0.16521235  0.03779364  1
  C  C4  1  0.50000000  0.16518730  0.20449784  1
  C  C5  1  0.49999999  0.16520120  0.37124170  1
  C  C6  1  0.50000001  0.16522961  0.53794447  1
  C  C7  1  0.50000000  0.16524695  0.70457260  1
  C  C8  1  0.49999999  0.16524773  0.87117308  1
  C  C9  1  0.50000000  0.18798178  0.12113635  1
  C  C10  1  0.50000000  0.18797099  0.28785695  1
  C  C11  1  0.50000000  0.18801356  0.45459061  1
  C  C12  1  0.50000000  0.18805440  0.62126167  1
  C  C13  1  0.49999999  0.18806124  0.78787571  1
  C  C14  1  0.49999999  0.18803578  0.95447581  1
  C  C15  1  0.49999999  0.23635807  0.12110435  1
  C  C16  1  0.50000000  0.23633799  0.28791360  1
  C  C17  1  0.50000000  0.23639459  0.45468687  1
  C  C18  1  0.50000000  0.23645185  0.62134154  1
  C  C19  1  0.49999999  0.23646647  0.78789183  1
  C  C20  1  0.49999999  0.23642001  0.95441279  1
  C  C21  1  0.49999999  0.26004396  0.03773157  1
  C  C22  1  0.49999999  0.25997036  0.20451994  1
  C  C23  1  0.50000001  0.26000048  0.37131508  1
  C  C24  1  0.50000000  0.26010504  0.53803303  1
  C  C25  1  0.50000000  0.26017582  0.70462684  1
  C  C26  1  0.49999999  0.26017235  0.87113713  1
  C  C27  1  0.49999998  0.30796254  0.03760562  1
  C  C28  1  0.49999999  0.30785804  0.20450253  1
  C  C29  1  0.50000001  0.30789797  0.37140988  1
  C  C30  1  0.50000000  0.30803286  0.53812821  1
  C  C31  1  0.49999999  0.30814604  0.70463196  1
  C  C32  1  0.49999998  0.30815019  0.87102391  1
  C  C33  1  0.49999998  0.33155369  0.12102394  1
  C  C34  1  0.50000000  0.33153878  0.28799551  1
  C  C35  1  0.50000001  0.33168410  0.45479822  1
  C  C36  1  0.49999999  0.33188596  0.62136622  1
  C  C37  1  0.49999999  0.33202689  0.78779606  1
  C  C38  1  0.49999998  0.33186341  0.95430498  1
  C  C39  1  0.49999998  0.37931725  0.12090631  1
  C  C40  1  0.49999999  0.37929088  0.28813256  1
  C  C41  1  0.50000000  0.37950778  0.45504433  1
  C  C42  1  0.49999999  0.37979226  0.62145404  1
  C  C43  1  0.49999999  0.37996145  0.78768149  1
  C  C44  1  0.49999998  0.37973393  0.95410374  1
  C  C45  1  0.49999998  0.40326763  0.03756358  1
  C  C46  1  0.49999999  0.40278554  0.20444269  1
  C  C47  1  0.49999999  0.40304763  0.37165631  1
  C  C48  1  0.50000000  0.40354795  0.53831548  1
  C  C49  1  0.50000000  0.40386462  0.70449107  1
  C  C50  1  0.49999999  0.40382196  0.87084178  1
  C  C51  1  0.49999999  0.45103080  0.03737334  1
  C  C52  1  0.49999998  0.45040366  0.20430087  1
  C  C53  1  0.49999999  0.45078593  0.37186774  1
  C  C54  1  0.50000001  0.45147168  0.53858532  1
  C  C55  1  0.50000002  0.45189513  0.70445055  1
  C  C56  1  0.50000000  0.45179180  0.87057076  1
  C  C57  1  0.49999999  0.47426960  0.12102239  1
  C  C58  1  0.49999997  0.47382320  0.28785294  1
  C  C59  1  0.49999999  0.47490176  0.45523100  1
  C  C60  1  0.50000000  0.47586830  0.62139600  1
  C  C61  1  0.50000002  0.47598740  0.78736071  1
  C  C62  1  0.50000000  0.47528907  0.95413792  1
  C  C63  1  0.50000000  0.52197497  0.12117860  1
  C  C64  1  0.49999994  0.52129379  0.28762117  1
  C  C65  1  0.49999994  0.52280274  0.45518254  1
  C  C66  1  0.49999995  0.52409667  0.62126000  1
  C  C67  1  0.50000003  0.52420448  0.78697049  1
  C  C68  1  0.50000004  0.52315384  0.95412122  1
  C  C69  1  0.50000004  0.54617053  0.03823332  1
  C  C70  1  0.49999997  0.54506297  0.20466540  1
  C  C71  1  0.49999992  0.54484890  0.37051368  1
  C  C72  1  0.49999989  0.54772568  0.53814075  1
  C  C73  1  0.49999998  0.54877479  0.70386251  1
  C  C74  1  0.50000005  0.54740762  0.87070096  1
  C  C75  1  0.50000007  0.59405033  0.03983326  1
  C  C76  1  0.50000001  0.59300236  0.20505619  1
  C  C77  1  0.50000010  0.59238566  0.36939080  1
  C  C78  1  0.50000002  0.59636430  0.53685649  1
  C  C79  1  0.49999995  0.59748517  0.70313655  1
  C  C80  1  0.50000005  0.59535797  0.87092029  1
  C  C81  1  0.50000002  0.61609935  0.12228048  1
  C  C82  1  0.50000009  0.61581507  0.28740116  1
  C  C83  1  0.50000045  0.61559584  0.45129886  1
  C  C84  1  0.49999988  0.62244417  0.62080885  1
  C  C85  1  0.49999999  0.62050131  0.78874539  1
  C  C86  1  0.50000013  0.61835722  0.95496338  1
  C  C87  1  0.49999960  0.67191643  0.62504793  1
  C  C88  1  0.50000010  0.66840173  0.79229720  1
  C  C89  1  0.50000024  0.66484378  0.95564540  1
  C  C90  1  0.49999887  0.70195223  0.55030270  1
  C  C91  1  0.49999997  0.69431828  0.71102511  1
  C  C92  1  0.50000026  0.69050872  0.87774958  1
  C  C93  1  0.49999927  0.74795508  0.55660803  1
  C  C94  1  0.49999997  0.74281073  0.71777202  1
  C  C95  1  0.50000037  0.73906755  0.88469083  1
  C  C96  1  0.49999984  0.77015882  0.63940330  1
  C  C97  1  0.50000001  0.76445850  0.80443372  1
  C  C98  1  0.50000083  0.76146827  0.96849215  1
  C  C99  1  0.49999982  0.81928941  0.64423697  1
  C  C100  1  0.49999990  0.81269965  0.81017665  1
  C  C101  1  0.50000083  0.80821066  0.97404532  1
  H  H102  1  0.49999959  0.88349791  0.57914227  1
  H  H103  1  0.49999978  0.87511909  0.73769895  1
  H  H104  1  0.50000027  0.87039730  0.89880775  1
  H  H105  1  0.50000000  0.12851911  0.03780902  1
  H  H106  1  0.50000000  0.12848946  0.20459654  1
  H  H107  1  0.50000001  0.12849955  0.37139429  1
  H  H108  1  0.50000001  0.12852931  0.53816070  1
  H  H109  1  0.49999999  0.12854063  0.70469461  1
  H  H110  1  0.49999999  0.12855677  0.87119030  1
  H  H111  1  0.49999984  0.83511409  0.49982518  1
  H  H112  1  0.50000000  0.65258563  0.12626381  1
  H  H113  1  0.50000007  0.65252832  0.28804623  1
  H  H114  1  0.50000147  0.65101056  0.44150758  1
  H  H115  1  0.49999780  0.69151625  0.48102278  1
  H  H116  1  0.49999906  0.76698605  0.49349638  1
  H  H117  1  0.50000025  0.68208096  0.02009220  1
  H  H118  1  0.50000108  0.74250015  0.03144815  1
  H  H119  1  0.50000100  0.82439846  0.04034329  1
