# generated using pymatgen
data_H11C27
_symmetry_space_group_name_H-M   'P 1'
_cell_length_a   10.00000000
_cell_length_b   25.62946000
_cell_length_c   14.94838200
_cell_angle_alpha   90.00000000
_cell_angle_beta   90.00000000
_cell_angle_gamma   90.00000000
_symmetry_Int_Tables_number   1
_chemical_formula_structural   H11C27
_chemical_formula_sum   'H22 C54'
_cell_volume   3831.18958581
_cell_formula_units_Z   2
loop_
 _symmetry_equiv_pos_site_id
 _symmetry_equiv_pos_as_xyz
  1  'x, y, z'
loop_
 _atom_site_type_symbol
 _atom_site_label
 _atom_site_symmetry_multiplicity
 _atom_site_fract_x
 _atom_site_fract_y
 _atom_site_fract_z
 _atom_site_occupancy
  C  C0  1  0.49999981  0.23576221  0.53693623  1
  C  C1  1  0.49999928  0.23432681  0.69864539  1
  C  C2  1  0.49999889  0.22652454  0.85882137  1
  C  C3  1  0.49999932  0.26236745  0.61762766  1
  C  C4  1  0.49999871  0.25882316  0.78233794  1
  C  C5  1  0.49999878  0.24984999  0.94164007  1
  C  C6  1  0.49999910  0.31953779  0.62618303  1
  C  C7  1  0.49999852  0.31546138  0.79112162  1
  C  C8  1  0.49999847  0.30422007  0.94991841  1
  C  C9  1  0.49999962  0.34913217  0.54925877  1
  C  C10  1  0.49999882  0.34553967  0.71119738  1
  C  C11  1  0.49999850  0.34030638  0.87730922  1
  C  C12  1  0.49999962  0.40403564  0.05175702  1
  C  C13  1  0.49999946  0.40204289  0.21804101  1
  C  C14  1  0.49999987  0.40386331  0.38316241  1
  C  C15  1  0.49999965  0.40339795  0.54981953  1
  C  C16  1  0.49999908  0.40156829  0.71546606  1
  C  C17  1  0.49999900  0.39845305  0.88261816  1
  C  C18  1  0.49999966  0.42879432  0.13593501  1
  C  C19  1  0.49999985  0.42952654  0.29939699  1
  C  C20  1  0.49999976  0.43052468  0.46418047  1
  C  C21  1  0.49999943  0.43019020  0.63349207  1
  C  C22  1  0.49999920  0.42836087  0.80169001  1
  C  C23  1  0.49999944  0.42791081  0.96726026  1
  C  C24  1  0.50000032  0.48444558  0.13580705  1
  C  C25  1  0.50000021  0.48617493  0.29910149  1
  C  C26  1  0.49999961  0.48662653  0.46417949  1
  C  C27  1  0.49999946  0.48629940  0.63405551  1
  C  C28  1  0.49999959  0.48641870  0.80214097  1
  C  C29  1  0.49999994  0.48544492  0.96739249  1
  C  C30  1  0.50000075  0.50894774  0.05184310  1
  C  C31  1  0.50000074  0.51242700  0.21679867  1
  C  C32  1  0.49999999  0.51267596  0.38251150  1
  C  C33  1  0.49999930  0.51354958  0.55066867  1
  C  C34  1  0.49999962  0.51424121  0.71690222  1
  C  C35  1  0.49999993  0.51567681  0.88347300  1
  C  C36  1  0.49999902  0.56775230  0.55170383  1
  C  C37  1  0.50000001  0.57039810  0.71424984  1
  C  C38  1  0.50000028  0.57373985  0.87968712  1
  C  C39  1  0.49999958  0.59689792  0.62988646  1
  C  C40  1  0.50000059  0.60038581  0.79502943  1
  C  C41  1  0.49999995  0.60869172  0.95390281  1
  C  C42  1  0.50000020  0.65366718  0.62379436  1
  C  C43  1  0.50000125  0.65707749  0.78906264  1
  C  C44  1  0.50000074  0.66235920  0.94861000  1
  C  C45  1  0.49999989  0.68032025  0.54110787  1
  C  C46  1  0.50000121  0.68294662  0.70376766  1
  C  C47  1  0.50000165  0.68863787  0.86710587  1
  C  C48  1  0.50000092  0.73486499  0.53670432  1
  C  C49  1  0.50000210  0.73932160  0.69929445  1
  C  C50  1  0.50000193  0.74594871  0.86380799  1
  C  C51  1  0.50000224  0.76425162  0.61453176  1
  C  C52  1  0.50000228  0.76913397  0.77787534  1
  C  C53  1  0.50000128  0.77735697  0.93937094  1
  H  H54  1  0.50000042  0.19301602  0.53708075  1
  H  H55  1  0.49999979  0.19154961  0.69653725  1
  H  H56  1  0.49999952  0.18406444  0.85054227  1
  H  H57  1  0.50000328  0.80700725  0.61210944  1
  H  H58  1  0.50000214  0.81184003  0.77268003  1
  H  H59  1  0.50000095  0.81990166  0.93191768  1
  H  H60  1  0.49999956  0.25472564  0.47140451  1
  H  H61  1  0.50000005  0.32870420  0.48556654  1
  H  H62  1  0.50000005  0.36246731  0.05827215  1
  H  H63  1  0.49999911  0.35923214  0.21895447  1
  H  H64  1  0.50000003  0.36124642  0.38105271  1
  H  H65  1  0.50000206  0.55033077  0.05899416  1
  H  H66  1  0.50000119  0.55525398  0.21562737  1
  H  H67  1  0.50000017  0.55533601  0.37952327  1
  H  H68  1  0.49999864  0.58827155  0.48810874  1
  H  H69  1  0.49999868  0.65874022  0.47811536  1
  H  H70  1  0.50000076  0.75420750  0.47132193  1
  H  H71  1  0.49999912  0.22626416  0.00277597  1
  H  H72  1  0.49999817  0.31546873  0.01913737  1
  H  H73  1  0.49999876  0.59684952  0.02265005  1
  H  H74  1  0.50000035  0.68395643  0.01170470  1
  H  H75  1  0.50000076  0.76226100  0.00774033  1
