# generated using pymatgen
data_H7C45
_symmetry_space_group_name_H-M   'P 1'
_cell_length_a   10.00000000
_cell_length_b   25.62946000
_cell_length_c   14.81872841
_cell_angle_alpha   90.00000000
_cell_angle_beta   90.00000000
_cell_angle_gamma   90.00000000
_symmetry_Int_Tables_number   1
_chemical_formula_structural   H7C45
_chemical_formula_sum   'H14 C90'
_cell_volume   3797.96006933
_cell_formula_units_Z   2
loop_
 _symmetry_equiv_pos_site_id
 _symmetry_equiv_pos_as_xyz
  1  'x, y, z'
loop_
 _atom_site_type_symbol
 _atom_site_label
 _atom_site_symmetry_multiplicity
 _atom_site_fract_x
 _atom_site_fract_y
 _atom_site_fract_z
 _atom_site_occupancy
  C  C0  1  0.50000016  0.82144746  0.55763469  1
  C  C1  1  0.49999933  0.80615795  0.71248744  1
  C  C2  1  0.49999885  0.80559396  0.87664558  1
  C  C3  1  0.50000026  0.19367316  0.04141604  1
  C  C4  1  0.50000028  0.19358352  0.20816519  1
  C  C5  1  0.49999969  0.19355679  0.37494721  1
  C  C6  1  0.49999898  0.19360835  0.54164855  1
  C  C7  1  0.50000023  0.19369268  0.70823839  1
  C  C8  1  0.50000093  0.19372497  0.87477902  1
  C  C9  1  0.50000018  0.22022376  0.12479884  1
  C  C10  1  0.49999988  0.22015599  0.29155514  1
  C  C11  1  0.49999924  0.22018951  0.45827269  1
  C  C12  1  0.49999936  0.22028529  0.62489745  1
  C  C13  1  0.50000088  0.22036132  0.79147138  1
  C  C14  1  0.50000076  0.22033079  0.95808196  1
  C  C15  1  0.50000009  0.27666105  0.12469579  1
  C  C16  1  0.49999963  0.27660280  0.29147911  1
  C  C17  1  0.49999956  0.27664726  0.45819046  1
  C  C18  1  0.49999978  0.27675062  0.62480185  1
  C  C19  1  0.50000062  0.27681558  0.79136574  1
  C  C20  1  0.50000076  0.27677007  0.95795997  1
  C  C21  1  0.50000047  0.30432739  0.04129004  1
  C  C22  1  0.49999974  0.30422044  0.20805501  1
  C  C23  1  0.49999967  0.30424324  0.37480144  1
  C  C24  1  0.49999995  0.30435861  0.54145513  1
  C  C25  1  0.50000024  0.30446282  0.70803636  1
  C  C26  1  0.50000065  0.30445917  0.87461238  1
  C  C27  1  0.50000028  0.36022846  0.04102845  1
  C  C28  1  0.49999978  0.36010325  0.20783281  1
  C  C29  1  0.49999989  0.36015771  0.37466591  1
  C  C30  1  0.50000030  0.36029687  0.54137611  1
  C  C31  1  0.50000025  0.36041319  0.70791374  1
  C  C32  1  0.50000028  0.36039544  0.87438191  1
  C  C33  1  0.49999996  0.38780268  0.12436429  1
  C  C34  1  0.49999985  0.38777073  0.29118353  1
  C  C35  1  0.50000010  0.38793701  0.45797371  1
  C  C36  1  0.50000029  0.38813667  0.62460279  1
  C  C37  1  0.50000007  0.38822774  0.79109743  1
  C  C38  1  0.50000014  0.38805684  0.95763278  1
  C  C39  1  0.49999993  0.44354365  0.12406949  1
  C  C40  1  0.50000001  0.44350685  0.29097991  1
  C  C41  1  0.49999997  0.44372344  0.45784905  1
  C  C42  1  0.49999992  0.44399450  0.62447288  1
  C  C43  1  0.49999995  0.44409326  0.79088310  1
  C  C44  1  0.49999985  0.44386364  0.95731029  1
  C  C45  1  0.49999983  0.47137830  0.04068226  1
  C  C46  1  0.50000011  0.47109706  0.20741447  1
  C  C47  1  0.50000006  0.47123357  0.37435515  1
  C  C48  1  0.49999987  0.47163541  0.54110380  1
  C  C49  1  0.49999989  0.47195606  0.70760115  1
  C  C50  1  0.49999985  0.47188248  0.87402300  1
  C  C51  1  0.50000007  0.52710982  0.04043877  1
  C  C52  1  0.50000036  0.52673732  0.20715565  1
  C  C53  1  0.50000035  0.52693741  0.37428087  1
  C  C54  1  0.50000009  0.52746316  0.54099579  1
  C  C55  1  0.49999996  0.52786795  0.70730528  1
  C  C56  1  0.49999994  0.52779882  0.87364635  1
  C  C57  1  0.50000037  0.55452592  0.12382000  1
  C  C58  1  0.50000053  0.55417775  0.29059558  1
  C  C59  1  0.50000044  0.55491286  0.45754142  1
  C  C60  1  0.50000016  0.55562602  0.62399216  1
  C  C61  1  0.50000003  0.55591954  0.79033136  1
  C  C62  1  0.50000012  0.55520414  0.95718894  1
  C  C63  1  0.50000039  0.61032539  0.12374583  1
  C  C64  1  0.50000051  0.60970344  0.29033593  1
  C  C65  1  0.50000068  0.61072943  0.45735651  1
  C  C66  1  0.50000054  0.61171757  0.62372636  1
  C  C67  1  0.50000012  0.61199522  0.79015408  1
  C  C68  1  0.50000022  0.61103008  0.95723532  1
  C  C69  1  0.50000022  0.63847735  0.04072863  1
  C  C70  1  0.50000025  0.63734183  0.20724637  1
  C  C71  1  0.50000047  0.63728420  0.37330703  1
  C  C72  1  0.50000070  0.63926276  0.54047021  1
  C  C73  1  0.50000029  0.64010955  0.70649827  1
  C  C74  1  0.50000001  0.63906946  0.87405513  1
  C  C75  1  0.49999967  0.69467051  0.04189300  1
  C  C76  1  0.49999966  0.69335012  0.20764848  1
  C  C77  1  0.50000001  0.69307630  0.37258006  1
  C  C78  1  0.50000052  0.69570271  0.53933593  1
  C  C79  1  0.50000006  0.69658167  0.70539491  1
  C  C80  1  0.49999951  0.69510272  0.87423388  1
  C  C81  1  0.49999933  0.72035768  0.12491656  1
  C  C82  1  0.49999958  0.72006356  0.29017061  1
  C  C83  1  0.50000012  0.72001144  0.45499048  1
  C  C84  1  0.50000034  0.72525320  0.62238695  1
  C  C85  1  0.49999933  0.72274147  0.79103317  1
  C  C86  1  0.49999934  0.72308501  0.95764658  1
  C  C87  1  0.50000005  0.78310438  0.62496688  1
  C  C88  1  0.49999883  0.77858990  0.79270186  1
  C  C89  1  0.49999912  0.77863495  0.95638064  1
  H  H90  1  0.49999989  0.86205983  0.58102639  1
  H  H91  1  0.49999930  0.84887786  0.71578548  1
  H  H92  1  0.49999894  0.84835525  0.87578935  1
  H  H93  1  0.50000000  0.15086304  0.04134617  1
  H  H94  1  0.50000064  0.15077557  0.20811877  1
  H  H95  1  0.50000003  0.15074932  0.37504025  1
  H  H96  1  0.49999918  0.15080166  0.54183699  1
  H  H97  1  0.50000048  0.15088160  0.70842872  1
  H  H98  1  0.50000079  0.15091289  0.87480127  1
  H  H99  1  0.50000017  0.81781197  0.48465479  1
  H  H100  1  0.49999874  0.76294970  0.12827626  1
  H  H101  1  0.49999947  0.76285935  0.28997524  1
  H  H102  1  0.49999985  0.76190176  0.45024835  1
  H  H103  1  0.49999961  0.80052529  0.01965934  1
