# generated using pymatgen
data_H2C7
_symmetry_space_group_name_H-M   'P 1'
_cell_length_a   10.00000000
_cell_length_b   29.89204000
_cell_length_c   14.86923828
_cell_angle_alpha   90.00000000
_cell_angle_beta   90.00000000
_cell_angle_gamma   90.00000000
_symmetry_Int_Tables_number   1
_chemical_formula_structural   H2C7
_chemical_formula_sum   'H24 C84'
_cell_volume   4444.71865329
_cell_formula_units_Z   12
loop_
 _symmetry_equiv_pos_site_id
 _symmetry_equiv_pos_as_xyz
  1  'x, y, z'
loop_
 _atom_site_type_symbol
 _atom_site_label
 _atom_site_symmetry_multiplicity
 _atom_site_fract_x
 _atom_site_fract_y
 _atom_site_fract_z
 _atom_site_occupancy
  C  C0  1  0.50000011  0.84759920  0.56467460  1
  C  C1  1  0.49999963  0.83947172  0.72685129  1
  C  C2  1  0.49999981  0.83450147  0.89106137  1
  C  C3  1  0.50000011  0.15240082  0.56467461  1
  C  C4  1  0.49999963  0.16052828  0.72685127  1
  C  C5  1  0.49999981  0.16549855  0.89106133  1
  C  C6  1  0.50000003  0.17988046  0.63988632  1
  C  C7  1  0.49999966  0.18643317  0.80534730  1
  C  C8  1  0.50000036  0.19105617  0.96881240  1
  C  C9  1  0.50000008  0.22905038  0.63533589  1
  C  C10  1  0.49999983  0.23468718  0.79967085  1
  C  C11  1  0.50000051  0.23777692  0.96322491  1
  C  C12  1  0.49999971  0.25128681  0.55289003  1
  C  C13  1  0.50000003  0.25641629  0.71340271  1
  C  C14  1  0.50000005  0.26012314  0.87963391  1
  C  C15  1  0.49999936  0.29725591  0.54662227  1
  C  C16  1  0.50000011  0.30496655  0.70656501  1
  C  C17  1  0.50000018  0.30869934  0.87250197  1
  C  C18  1  0.49999985  0.32738154  0.62098115  1
  C  C19  1  0.50000018  0.33093420  0.78744802  1
  C  C20  1  0.50000015  0.33437429  0.95006348  1
  C  C21  1  0.49999992  0.38226264  0.11710489  1
  C  C22  1  0.49999999  0.38248731  0.28333907  1
  C  C23  1  0.50000018  0.38323264  0.44750277  1
  C  C24  1  0.49999994  0.37691298  0.61667920  1
  C  C25  1  0.50000013  0.37894294  0.78411481  1
  C  C26  1  0.50000010  0.38085725  0.94980810  1
  C  C27  1  0.50000000  0.40467520  0.03496986  1
  C  C28  1  0.49999994  0.40489005  0.20040865  1
  C  C29  1  0.50000003  0.40606552  0.36533087  1
  C  C30  1  0.49999999  0.40278406  0.53271004  1
  C  C31  1  0.50000004  0.40205239  0.69866007  1
  C  C32  1  0.50000009  0.40410696  0.86605401  1
  C  C33  1  0.50000000  0.45255825  0.03319704  1
  C  C34  1  0.49999998  0.45281873  0.19991608  1
  C  C35  1  0.49999997  0.45359681  0.36652462  1
  C  C36  1  0.49999997  0.45154656  0.53396904  1
  C  C37  1  0.50000002  0.45101902  0.69922170  1
  C  C38  1  0.50000000  0.45221819  0.86567138  1
  C  C39  1  0.50000000  0.47611422  0.11652153  1
  C  C40  1  0.49999999  0.47635544  0.28291040  1
  C  C41  1  0.49999997  0.47601771  0.45109967  1
  C  C42  1  0.49999999  0.47566857  0.61675706  1
  C  C43  1  0.50000000  0.47571405  0.78203012  1
  C  C44  1  0.49999996  0.47603873  0.94928254  1
  C  C45  1  0.50000000  0.52388577  0.11652150  1
  C  C46  1  0.49999999  0.52364455  0.28291040  1
  C  C47  1  0.49999997  0.52398229  0.45109968  1
  C  C48  1  0.49999999  0.52433145  0.61675706  1
  C  C49  1  0.50000000  0.52428596  0.78203015  1
  C  C50  1  0.49999996  0.52396127  0.94928256  1
  C  C51  1  0.50000000  0.54744176  0.03319705  1
  C  C52  1  0.49999998  0.54718127  0.19991609  1
  C  C53  1  0.49999997  0.54640318  0.36652462  1
  C  C54  1  0.49999997  0.54845345  0.53396905  1
  C  C55  1  0.50000002  0.54898099  0.69922170  1
  C  C56  1  0.50000000  0.54778182  0.86567138  1
  C  C57  1  0.50000000  0.59532480  0.03496984  1
  C  C58  1  0.49999994  0.59510995  0.20040865  1
  C  C59  1  0.50000003  0.59393447  0.36533089  1
  C  C60  1  0.49999999  0.59721595  0.53271003  1
  C  C61  1  0.50000004  0.59794761  0.69866005  1
  C  C62  1  0.50000009  0.59589306  0.86605401  1
  C  C63  1  0.49999992  0.61773737  0.11710492  1
  C  C64  1  0.49999999  0.61751269  0.28333908  1
  C  C65  1  0.50000018  0.61676737  0.44750276  1
  C  C66  1  0.49999994  0.62308702  0.61667919  1
  C  C67  1  0.50000013  0.62105706  0.78411480  1
  C  C68  1  0.50000010  0.61914277  0.94980808  1
  C  C69  1  0.49999985  0.67261845  0.62098113  1
  C  C70  1  0.50000018  0.66906579  0.78744802  1
  C  C71  1  0.50000015  0.66562571  0.95006345  1
  C  C72  1  0.49999936  0.70274405  0.54662223  1
  C  C73  1  0.50000011  0.69503343  0.70656500  1
  C  C74  1  0.50000018  0.69130066  0.87250195  1
  C  C75  1  0.49999971  0.74871317  0.55289000  1
  C  C76  1  0.50000003  0.74358370  0.71340269  1
  C  C77  1  0.50000005  0.73987687  0.87963392  1
  C  C78  1  0.50000008  0.77094961  0.63533586  1
  C  C79  1  0.49999983  0.76531281  0.79967087  1
  C  C80  1  0.50000051  0.76222308  0.96322493  1
  C  C81  1  0.50000003  0.82011957  0.63988631  1
  C  C82  1  0.49999966  0.81356684  0.80534734  1
  C  C83  1  0.50000036  0.80894383  0.96881244  1
  H  H84  1  0.49999979  0.88403737  0.57320503  1
  H  H85  1  0.49999953  0.87602604  0.73291575  1
  H  H86  1  0.49999968  0.87112460  0.89415688  1
  H  H87  1  0.49999979  0.11596262  0.57320504  1
  H  H88  1  0.49999953  0.12397392  0.73291578  1
  H  H89  1  0.49999968  0.12887541  0.89415689  1
  H  H90  1  0.50000063  0.83508666  0.49558463  1
  H  H91  1  0.50000064  0.16491336  0.49558459  1
  H  H92  1  0.49999948  0.23223381  0.49005656  1
  H  H93  1  0.49999844  0.30751023  0.47747930  1
  H  H94  1  0.49999984  0.34574174  0.12000784  1
  H  H95  1  0.49999997  0.34578821  0.28457917  1
  H  H96  1  0.50000064  0.34778542  0.43818996  1
  H  H97  1  0.49999984  0.65425825  0.12000783  1
  H  H98  1  0.49999997  0.65421179  0.28457918  1
  H  H99  1  0.50000064  0.65221459  0.43818997  1
  H  H100  1  0.49999844  0.69248977  0.47747930  1
  H  H101  1  0.49999948  0.76776617  0.49005661  1
  H  H102  1  0.50000079  0.17489736  0.03492019  1
  H  H103  1  0.50000121  0.25681258  0.02588161  1
  H  H104  1  0.50000015  0.31711140  0.01426612  1
  H  H105  1  0.50000015  0.68288858  0.01426610  1
  H  H106  1  0.50000121  0.74318743  0.02588160  1
  H  H107  1  0.50000079  0.82510264  0.03492017  1
