# generated using pymatgen
data_HC5
_symmetry_space_group_name_H-M   'P 1'
_cell_length_a   10.00000000
_cell_length_b   29.89204000
_cell_length_c   14.83186371
_cell_angle_alpha   90.00000000
_cell_angle_beta   90.00000000
_cell_angle_gamma   90.00000000
_symmetry_Int_Tables_number   1
_chemical_formula_structural   HC5
_chemical_formula_sum   'H18 C90'
_cell_volume   4433.54663339
_cell_formula_units_Z   18
loop_
 _symmetry_equiv_pos_site_id
 _symmetry_equiv_pos_as_xyz
  1  'x, y, z'
loop_
 _atom_site_type_symbol
 _atom_site_label
 _atom_site_symmetry_multiplicity
 _atom_site_fract_x
 _atom_site_fract_y
 _atom_site_fract_z
 _atom_site_occupancy
  C  C0  1  0.49999998  0.20074780  0.04574230  1
  C  C1  1  0.49999998  0.20062200  0.21266163  1
  C  C2  1  0.49999999  0.20074146  0.37961811  1
  C  C3  1  0.50000001  0.20095626  0.54628413  1
  C  C4  1  0.50000001  0.20104685  0.71265984  1
  C  C5  1  0.50000000  0.20094948  0.87907591  1
  C  C6  1  0.49999998  0.22342672  0.12923436  1
  C  C7  1  0.49999999  0.22340655  0.29609521  1
  C  C8  1  0.50000001  0.22364975  0.46289034  1
  C  C9  1  0.50000002  0.22387304  0.62945880  1
  C  C10  1  0.50000001  0.22385842  0.79590266  1
  C  C11  1  0.49999999  0.22365941  0.96246609  1
  C  C12  1  0.49999999  0.27182464  0.12920396  1
  C  C13  1  0.50000000  0.27179717  0.29609515  1
  C  C14  1  0.50000002  0.27201204  0.46296261  1
  C  C15  1  0.50000002  0.27226647  0.62955989  1
  C  C16  1  0.50000001  0.27228148  0.79596511  1
  C  C17  1  0.50000000  0.27205836  0.96247758  1
  C  C18  1  0.49999999  0.29559262  0.04585331  1
  C  C19  1  0.50000000  0.29541333  0.21261627  1
  C  C20  1  0.50000002  0.29547524  0.37953189  1
  C  C21  1  0.50000003  0.29584190  0.54626464  1
  C  C22  1  0.50000002  0.29605093  0.71277176  1
  C  C23  1  0.50000000  0.29590954  0.87928528  1
  C  C24  1  0.49999998  0.34357045  0.04560296  1
  C  C25  1  0.50000000  0.34330841  0.21250959  1
  C  C26  1  0.50000002  0.34335453  0.37969557  1
  C  C27  1  0.50000002  0.34382354  0.54652641  1
  C  C28  1  0.50000000  0.34409741  0.71287728  1
  C  C29  1  0.50000000  0.34395608  0.87917001  1
  C  C30  1  0.49999999  0.36707512  0.12901472  1
  C  C31  1  0.50000000  0.36680288  0.29617966  1
  C  C32  1  0.50000002  0.36726166  0.46304343  1
  C  C33  1  0.50000001  0.36790742  0.62974289  1
  C  C34  1  0.49999999  0.36797978  0.79606953  1
  C  C35  1  0.49999999  0.36765276  0.96237514  1
  C  C36  1  0.50000001  0.41489501  0.12883403  1
  C  C37  1  0.50000003  0.41447302  0.29634908  1
  C  C38  1  0.50000002  0.41507622  0.46324031  1
  C  C39  1  0.50000000  0.41593060  0.63006031  1
  C  C40  1  0.49999999  0.41604395  0.79618890  1
  C  C41  1  0.50000001  0.41563564  0.96218314  1
  C  C42  1  0.50000003  0.43907291  0.04551312  1
  C  C43  1  0.50000006  0.43791133  0.21282896  1
  C  C44  1  0.50000002  0.43831319  0.37960297  1
  C  C45  1  0.50000000  0.43932146  0.54643711  1
  C  C46  1  0.49999998  0.44008500  0.71323736  1
  C  C47  1  0.50000004  0.43998920  0.87931347  1
  C  C48  1  0.50000011  0.48700301  0.04542445  1
  C  C49  1  0.50000015  0.48542080  0.21297859  1
  C  C50  1  0.50000003  0.48605548  0.37942566  1
  C  C51  1  0.49999996  0.48719520  0.54641607  1
  C  C52  1  0.49999997  0.48827254  0.71348104  1
  C  C53  1  0.50000012  0.48825064  0.87933919  1
  C  C54  1  0.50000014  0.50902768  0.13009332  1
  C  C55  1  0.50000008  0.50916506  0.29591973  1
  C  C56  1  0.49999999  0.51020710  0.46233098  1
  C  C57  1  0.49999996  0.51144183  0.62975690  1
  C  C58  1  0.50000001  0.51283629  0.79662226  1
  C  C59  1  0.50000016  0.51192613  0.96246486  1
  C  C60  1  0.49999976  0.55658744  0.13118322  1
  C  C61  1  0.50000001  0.55711929  0.29546241  1
  C  C62  1  0.49999999  0.55808210  0.46063396  1
  C  C63  1  0.49999995  0.55938699  0.62948845  1
  C  C64  1  0.50000003  0.56154079  0.79727659  1
  C  C65  1  0.49999987  0.56060298  0.96369195  1
  C  C66  1  0.49999909  0.57985804  0.04929122  1
  C  C67  1  0.49999981  0.58000583  0.21319057  1
  C  C68  1  0.50000002  0.58016279  0.37823286  1
  C  C69  1  0.49999990  0.58237422  0.54546036  1
  C  C70  1  0.49999998  0.58454997  0.71162534  1
  C  C71  1  0.50000013  0.58656650  0.87950513  1
  C  C72  1  0.49999974  0.62883598  0.54461336  1
  C  C73  1  0.49999981  0.63244706  0.70785900  1
  C  C74  1  0.50000055  0.63600632  0.87490145  1
  C  C75  1  0.49999962  0.65455595  0.62236102  1
  C  C76  1  0.50000003  0.65838242  0.78893842  1
  C  C77  1  0.50000162  0.66602915  0.94956330  1
  C  C78  1  0.49999953  0.70312096  0.61513495  1
  C  C79  1  0.50000001  0.70687517  0.78200977  1
  C  C80  1  0.50000100  0.71199853  0.94312360  1
  C  C81  1  0.49999908  0.72548835  0.53125791  1
  C  C82  1  0.49999989  0.72853351  0.69537107  1
  C  C83  1  0.50000017  0.73420051  0.86033781  1
  C  C84  1  0.49999904  0.77225179  0.52585608  1
  C  C85  1  0.50000005  0.77678582  0.68969361  1
  C  C86  1  0.50000020  0.78333069  0.85553628  1
  C  C87  1  0.49999968  0.79778660  0.60386231  1
  C  C88  1  0.50000021  0.80264748  0.76838550  1
  C  C89  1  0.50000030  0.81094577  0.93063580  1
  H  H90  1  0.49999997  0.16404699  0.04543479  1
  H  H91  1  0.49999997  0.16392101  0.21267739  1
  H  H92  1  0.49999999  0.16404336  0.38002265  1
  H  H93  1  0.50000001  0.16425832  0.54664559  1
  H  H94  1  0.50000001  0.16434788  0.71266200  1
  H  H95  1  0.49999999  0.16425076  0.87874225  1
  H  H96  1  0.49999968  0.83444958  0.60099542  1
  H  H97  1  0.50000021  0.83919836  0.76230959  1
  H  H98  1  0.50000052  0.84731431  0.92133897  1
  H  H99  1  0.49999735  0.61529559  0.05910538  1
  H  H100  1  0.49999980  0.61672266  0.21296856  1
  H  H101  1  0.50000000  0.61665166  0.37429334  1
  H  H102  1  0.49999979  0.64592805  0.48001233  1
  H  H103  1  0.49999866  0.70656388  0.46821166  1
  H  H104  1  0.49999873  0.78842051  0.45955047  1
  H  H105  1  0.50000352  0.65549219  0.01878658  1
  H  H106  1  0.50000155  0.73100583  0.00615702  1
  H  H107  1  0.50000020  0.79874797  0.00007687  1
