# generated using pymatgen
data_H11C27
_symmetry_space_group_name_H-M   'P 1'
_cell_length_a   10.00000000
_cell_length_b   25.62946000
_cell_length_c   14.82429918
_cell_angle_alpha   90.00000000
_cell_angle_beta   90.00000000
_cell_angle_gamma   90.00000000
_symmetry_Int_Tables_number   1
_chemical_formula_structural   H11C27
_chemical_formula_sum   'H22 C54'
_cell_volume   3799.38782913
_cell_formula_units_Z   2
loop_
 _symmetry_equiv_pos_site_id
 _symmetry_equiv_pos_as_xyz
  1  'x, y, z'
loop_
 _atom_site_type_symbol
 _atom_site_label
 _atom_site_symmetry_multiplicity
 _atom_site_fract_x
 _atom_site_fract_y
 _atom_site_fract_z
 _atom_site_occupancy
  C  C0  1  0.50000151  0.23141398  0.05397229  1
  C  C1  1  0.49999939  0.22579712  0.22408558  1
  C  C2  1  0.49999731  0.22746070  0.39388362  1
  C  C3  1  0.49999761  0.23217733  0.56143328  1
  C  C4  1  0.50000038  0.23650673  0.72696027  1
  C  C5  1  0.50000202  0.23673067  0.89001026  1
  C  C6  1  0.50000085  0.25342546  0.14117827  1
  C  C7  1  0.49999910  0.25207668  0.30822463  1
  C  C8  1  0.49999768  0.25614458  0.47560754  1
  C  C9  1  0.49999876  0.26100382  0.64251788  1
  C  C10  1  0.50000076  0.26451740  0.80870505  1
  C  C11  1  0.50000193  0.26188463  0.97398450  1
  C  C12  1  0.50000101  0.30977842  0.14336859  1
  C  C13  1  0.50000099  0.30884584  0.30769340  1
  C  C14  1  0.49999913  0.31295469  0.47266438  1
  C  C15  1  0.49999832  0.31758630  0.64090588  1
  C  C16  1  0.49999997  0.32155565  0.80915126  1
  C  C17  1  0.50000120  0.31929567  0.97636986  1
  C  C18  1  0.50000010  0.33946359  0.06339397  1
  C  C19  1  0.50000164  0.33582585  0.22614111  1
  C  C20  1  0.50000135  0.33698100  0.38945657  1
  C  C21  1  0.49999821  0.34307865  0.55622856  1
  C  C22  1  0.49999861  0.34732678  0.72251667  1
  C  C23  1  0.50000102  0.34992850  0.89150155  1
  C  C24  1  0.49999745  0.39764581  0.55415762  1
  C  C25  1  0.49999777  0.40302788  0.71784492  1
  C  C26  1  0.50000137  0.40746307  0.88538484  1
  C  C27  1  0.49999674  0.42822607  0.63170507  1
  C  C28  1  0.49999877  0.43329976  0.79888199  1
  C  C29  1  0.50000406  0.44202378  0.96030607  1
  C  C30  1  0.49999571  0.48489487  0.62486423  1
  C  C31  1  0.49999844  0.48971261  0.79143524  1
  C  C32  1  0.50000144  0.49560484  0.95331532  1
  C  C33  1  0.49999345  0.51073358  0.54074429  1
  C  C34  1  0.49999699  0.51532264  0.70459775  1
  C  C35  1  0.49999963  0.52133009  0.86977987  1
  C  C36  1  0.49999344  0.56448666  0.53467619  1
  C  C37  1  0.49999685  0.57142425  0.69822801  1
  C  C38  1  0.50000133  0.57792983  0.86417555  1
  C  C39  1  0.49999520  0.59626082  0.61225773  1
  C  C40  1  0.49999937  0.60279475  0.77873000  1
  C  C41  1  0.50000694  0.60951255  0.94214986  1
  C  C42  1  0.49999575  0.65307233  0.60556178  1
  C  C43  1  0.50000075  0.65869998  0.77281891  1
  C  C44  1  0.50000845  0.66337782  0.93650313  1
  C  C45  1  0.49999386  0.67923437  0.52164664  1
  C  C46  1  0.49999885  0.68337212  0.68581853  1
  C  C47  1  0.50000440  0.68936566  0.85296099  1
  C  C48  1  0.49999523  0.73385083  0.51654038  1
  C  C49  1  0.50000075  0.73959065  0.68056677  1
  C  C50  1  0.50000470  0.74668634  0.84762434  1
  C  C51  1  0.49999881  0.76383439  0.59445878  1
  C  C52  1  0.50000404  0.76934461  0.76018033  1
  C  C53  1  0.50000477  0.77848396  0.92323210  1
  H  H54  1  0.50000133  0.18877460  0.04671446  1
  H  H55  1  0.49999857  0.18297431  0.22303231  1
  H  H56  1  0.49999581  0.18465652  0.39741573  1
  H  H57  1  0.49999704  0.18944033  0.56592927  1
  H  H58  1  0.50000164  0.19373071  0.73023549  1
  H  H59  1  0.50000249  0.19393053  0.88744788  1
  H  H60  1  0.49999994  0.80655816  0.59097083  1
  H  H61  1  0.50000546  0.81205461  0.75470100  1
  H  H62  1  0.50000486  0.82094805  0.91507170  1
  H  H63  1  0.49999736  0.38067498  0.07760874  1
  H  H64  1  0.50000208  0.37864820  0.22738629  1
  H  H65  1  0.50000357  0.37951438  0.38332211  1
  H  H66  1  0.49999780  0.41721475  0.48906064  1
  H  H67  1  0.49999095  0.48844555  0.47789604  1
  H  H68  1  0.49999183  0.58227939  0.46765122  1
  H  H69  1  0.49999109  0.65713427  0.45857298  1
  H  H70  1  0.49999309  0.75297971  0.45037672  1
  H  H71  1  0.50001041  0.42829652  0.02899516  1
  H  H72  1  0.50000132  0.51796039  0.01612155  1
  H  H73  1  0.50001126  0.59160401  0.00901027  1
  H  H74  1  0.50001369  0.68587397  -0.00087159  1
  H  H75  1  0.50000426  0.76341538  -0.00775099  1
