# generated using pymatgen
data_H2C7
_symmetry_space_group_name_H-M   'P 1'
_cell_length_a   10.00000000
_cell_length_b   29.89204000
_cell_length_c   14.87056047
_cell_angle_alpha   90.00000000
_cell_angle_beta   90.00000000
_cell_angle_gamma   90.00000000
_symmetry_Int_Tables_number   1
_chemical_formula_structural   H2C7
_chemical_formula_sum   'H24 C84'
_cell_volume   4445.11388448
_cell_formula_units_Z   12
loop_
 _symmetry_equiv_pos_site_id
 _symmetry_equiv_pos_as_xyz
  1  'x, y, z'
loop_
 _atom_site_type_symbol
 _atom_site_label
 _atom_site_symmetry_multiplicity
 _atom_site_fract_x
 _atom_site_fract_y
 _atom_site_fract_z
 _atom_site_occupancy
  C  C0  1  0.49999412  0.84756656  0.58072708  1
  C  C1  1  0.49999909  0.83866471  0.74236629  1
  C  C2  1  0.50000490  0.83385173  0.90738762  1
  C  C3  1  0.50000092  0.15116162  0.54942041  1
  C  C4  1  0.50000017  0.16450239  0.70332727  1
  C  C5  1  0.49999914  0.16498000  0.86618112  1
  C  C6  1  0.50000045  0.18415936  0.61602239  1
  C  C7  1  0.49999974  0.18831067  0.78283639  1
  C  C8  1  0.49999904  0.18803349  0.94545917  1
  C  C9  1  0.50000003  0.23691738  0.11400551  1
  C  C10  1  0.49999995  0.23688296  0.28047070  1
  C  C11  1  0.49999976  0.23765009  0.44584276  1
  C  C12  1  0.50000015  0.23379242  0.61289960  1
  C  C13  1  0.49999988  0.23621525  0.78088451  1
  C  C14  1  0.49999953  0.23563016  0.94680903  1
  C  C15  1  0.49999978  0.25937520  0.03129350  1
  C  C16  1  0.49999988  0.25946269  0.19736752  1
  C  C17  1  0.49999966  0.26018131  0.36291243  1
  C  C18  1  0.49999977  0.25884825  0.52978100  1
  C  C19  1  0.50000004  0.25863218  0.69538108  1
  C  C20  1  0.49999974  0.25987482  0.86376784  1
  C  C21  1  0.49999977  0.30749278  0.03007579  1
  C  C22  1  0.49999922  0.30748968  0.19686471  1
  C  C23  1  0.49999889  0.30806163  0.36360597  1
  C  C24  1  0.49999904  0.30737079  0.53077857  1
  C  C25  1  0.49999963  0.30726198  0.69602287  1
  C  C26  1  0.49999993  0.30800079  0.86310307  1
  C  C27  1  0.49999937  0.33089079  0.11351576  1
  C  C28  1  0.49999819  0.33091524  0.28000972  1
  C  C29  1  0.49999846  0.33124884  0.44750268  1
  C  C30  1  0.49999860  0.33166461  0.61342164  1
  C  C31  1  0.49999990  0.33153122  0.77930768  1
  C  C32  1  0.49999997  0.33144047  0.94664098  1
  C  C33  1  0.49999923  0.37874041  0.11355443  1
  C  C34  1  0.49999714  0.37834126  0.27987051  1
  C  C35  1  0.49999746  0.37927596  0.44773564  1
  C  C36  1  0.49999777  0.38016101  0.61357775  1
  C  C37  1  0.50000026  0.38001000  0.77926884  1
  C  C38  1  0.50000012  0.37936316  0.94656182  1
  C  C39  1  0.49999982  0.40259268  0.03052509  1
  C  C40  1  0.49999860  0.40192544  0.19694840  1
  C  C41  1  0.49999711  0.40143508  0.36308174  1
  C  C42  1  0.49999710  0.40400951  0.53063318  1
  C  C43  1  0.49999994  0.40466017  0.69624721  1
  C  C44  1  0.50000035  0.40331239  0.86306934  1
  C  C45  1  0.49999996  0.45049373  0.03221048  1
  C  C46  1  0.49999973  0.44988134  0.19744724  1
  C  C47  1  0.50000535  0.44897122  0.36198312  1
  C  C48  1  0.50000367  0.45278470  0.52926618  1
  C  C49  1  0.50000010  0.45343944  0.69561260  1
  C  C50  1  0.50000080  0.45134182  0.86342313  1
  C  C51  1  0.49999944  0.47270038  0.11442099  1
  C  C52  1  0.50000436  0.47244539  0.28003371  1
  C  C53  1  0.50001916  0.47208764  0.44383661  1
  C  C54  1  0.49999918  0.47857374  0.61361151  1
  C  C55  1  0.50000104  0.47641089  0.78126175  1
  C  C56  1  0.50000124  0.47452746  0.94720573  1
  C  C57  1  0.49999332  0.52793835  0.61867595  1
  C  C58  1  0.50000362  0.52431946  0.78493743  1
  C  C59  1  0.50000288  0.52098369  0.94774123  1
  C  C60  1  0.49997566  0.55794052  0.54421029  1
  C  C61  1  0.50000202  0.55036163  0.70435339  1
  C  C62  1  0.50000455  0.54660452  0.86993440  1
  C  C63  1  0.49998742  0.60382856  0.55048188  1
  C  C64  1  0.50000290  0.59887765  0.71125979  1
  C  C65  1  0.50000538  0.59505695  0.87672683  1
  C  C66  1  0.50000079  0.62611635  0.63325530  1
  C  C67  1  0.50000431  0.62107878  0.79734700  1
  C  C68  1  0.50000668  0.61715174  0.96065513  1
  C  C69  1  0.49999932  0.67464503  0.63821325  1
  C  C70  1  0.50000388  0.66915311  0.80350954  1
  C  C71  1  0.50000697  0.66320649  0.96666574  1
  C  C72  1  0.49999300  0.70172148  0.56036510  1
  C  C73  1  0.50000119  0.69605064  0.72328756  1
  C  C74  1  0.50000550  0.69038194  0.88919404  1
  C  C75  1  0.49999162  0.74798409  0.56575887  1
  C  C76  1  0.49999973  0.74396511  0.72894379  1
  C  C77  1  0.50000553  0.73902843  0.89570146  1
  C  C78  1  0.49999597  0.77032226  0.64904415  1
  C  C79  1  0.50000227  0.76498690  0.81575594  1
  C  C80  1  0.50000886  0.76131751  0.97937688  1
  C  C81  1  0.49999625  0.81949825  0.65495748  1
  C  C82  1  0.50000194  0.81311548  0.82151832  1
  C  C83  1  0.50000852  0.80807437  0.98494425  1
  H  H84  1  0.49999447  0.88389874  0.59083728  1
  H  H85  1  0.49999923  0.87525138  0.74797953  1
  H  H86  1  0.50000435  0.87046075  0.91107667  1
  H  H87  1  0.50000061  0.11646074  0.57331778  1
  H  H88  1  0.50000034  0.12788839  0.70758013  1
  H  H89  1  0.49999877  0.12832026  0.86507641  1
  H  H90  1  0.49999202  0.83568468  0.51121474  1
  H  H91  1  0.50000181  0.15401317  0.47672796  1
  H  H92  1  0.50000025  0.20038199  0.11623211  1
  H  H93  1  0.50000020  0.20015638  0.28128423  1
  H  H94  1  0.49999943  0.20170102  0.44174285  1
  H  H95  1  0.49999980  0.50919000  0.11798621  1
  H  H96  1  0.50000526  0.50915160  0.28117134  1
  H  H97  1  0.50005424  0.50749132  0.43324182  1
  H  H98  1  0.49993899  0.54721170  0.47537064  1
  H  H99  1  0.49997958  0.62261168  0.48744817  1
  H  H100  1  0.49998861  0.68636133  0.49370397  1
  H  H101  1  0.49998619  0.76729702  0.50324315  1
  H  H102  1  0.49999860  0.16927543  0.00844287  1
  H  H103  1  0.50000271  0.53805024  0.01221370  1
  H  H104  1  0.50000760  0.59809292  0.02334921  1
  H  H105  1  0.50000824  0.67833344  0.03357730  1
  H  H106  1  0.50001210  0.74210282  0.04183900  1
  H  H107  1  0.50001088  0.82417515  0.05114833  1
