# generated using pymatgen
data_H5C12
_symmetry_space_group_name_H-M   'P 1'
_cell_length_a   10.00000000
_cell_length_b   21.36688000
_cell_length_c   14.83904161
_cell_angle_alpha   90.00000000
_cell_angle_beta   90.00000000
_cell_angle_gamma   90.00000000
_symmetry_Int_Tables_number   1
_chemical_formula_structural   H5C12
_chemical_formula_sum   'H20 C48'
_cell_volume   3170.64021298
_cell_formula_units_Z   4
loop_
 _symmetry_equiv_pos_site_id
 _symmetry_equiv_pos_as_xyz
  1  'x, y, z'
loop_
 _atom_site_type_symbol
 _atom_site_label
 _atom_site_symmetry_multiplicity
 _atom_site_fract_x
 _atom_site_fract_y
 _atom_site_fract_z
 _atom_site_occupancy
  C  C0  1  0.49999744  0.76681927  0.51985079  1
  C  C1  1  0.50000293  0.76937177  0.68309045  1
  C  C2  1  0.50000666  0.77675632  0.84852080  1
  C  C3  1  0.49999995  0.22951253  0.05012772  1
  C  C4  1  0.49999897  0.22239373  0.21994810  1
  C  C5  1  0.49999678  0.22386411  0.38981360  1
  C  C6  1  0.49999518  0.22937928  0.55740037  1
  C  C7  1  0.49999562  0.23473116  0.72319743  1
  C  C8  1  0.49999895  0.23564942  0.88646123  1
  C  C9  1  0.49999997  0.25577426  0.13728893  1
  C  C10  1  0.49999887  0.25359847  0.30424402  1
  C  C11  1  0.49999710  0.25813433  0.47158478  1
  C  C12  1  0.49999619  0.26391858  0.63860310  1
  C  C13  1  0.49999764  0.26851047  0.80483205  1
  C  C14  1  0.49999991  0.26604558  0.97022798  1
  C  C15  1  0.49999991  0.32335864  0.13950956  1
  C  C16  1  0.50000089  0.32169418  0.30383786  1
  C  C17  1  0.49999970  0.32625482  0.46875797  1
  C  C18  1  0.49999832  0.33182038  0.63683228  1
  C  C19  1  0.49999867  0.33688948  0.80497905  1
  C  C20  1  0.49999925  0.33485849  0.97251586  1
  C  C21  1  0.49999797  0.35903101  0.05960023  1
  C  C22  1  0.50000125  0.35431926  0.22252832  1
  C  C23  1  0.50000158  0.35520110  0.38568118  1
  C  C24  1  0.49999976  0.36239121  0.55220622  1
  C  C25  1  0.49999883  0.36763550  0.71826608  1
  C  C26  1  0.49999951  0.37105916  0.88712050  1
  C  C27  1  0.50000105  0.42787154  0.54988669  1
  C  C28  1  0.49999937  0.43446197  0.71328118  1
  C  C29  1  0.50000055  0.43993945  0.88053505  1
  C  C30  1  0.50000019  0.46463322  0.62722845  1
  C  C31  1  0.49999960  0.47084007  0.79416787  1
  C  C32  1  0.50000300  0.48114194  0.95542957  1
  C  C33  1  0.50000015  0.53265816  0.62024790  1
  C  C34  1  0.49999966  0.53847398  0.78682517  1
  C  C35  1  0.50000136  0.54538989  0.94866775  1
  C  C36  1  0.49999943  0.56380674  0.53637550  1
  C  C37  1  0.50000004  0.56906182  0.70000236  1
  C  C38  1  0.49999967  0.57626628  0.86531141  1
  C  C39  1  0.49999895  0.62840976  0.53048765  1
  C  C40  1  0.50000010  0.63628522  0.69381954  1
  C  C41  1  0.50000062  0.64428084  0.86020241  1
  C  C42  1  0.49999964  0.66621743  0.60798638  1
  C  C43  1  0.50000112  0.67334982  0.77439706  1
  C  C44  1  0.50000270  0.68220507  0.93807409  1
  C  C45  1  0.49999993  0.73497519  0.60123475  1
  C  C46  1  0.50000355  0.74067656  0.76812899  1
  C  C47  1  0.50000628  0.74763746  0.93209755  1
  H  H48  1  0.49999780  0.81810519  0.51961940  1
  H  H49  1  0.50000395  0.82064397  0.67969323  1
  H  H50  1  0.50000937  0.82790779  0.84305493  1
  H  H51  1  0.49999965  0.17840528  0.04281883  1
  H  H52  1  0.49999786  0.17104263  0.21843310  1
  H  H53  1  0.49999473  0.17248984  0.39310116  1
  H  H54  1  0.49999312  0.17808181  0.56168059  1
  H  H55  1  0.49999395  0.18349182  0.72668619  1
  H  H56  1  0.49999880  0.18431501  0.88469104  1
  H  H57  1  0.49999542  0.74350510  0.45426982  1
  H  H58  1  0.49999408  0.40840585  0.07436089  1
  H  H59  1  0.50000235  0.40567662  0.22444284  1
  H  H60  1  0.50000324  0.40618508  0.37996981  1
  H  H61  1  0.50000259  0.45119375  0.48469597  1
  H  H62  1  0.49999873  0.53715409  0.47351921  1
  H  H63  1  0.49999837  0.65003187  0.46366287  1
  H  H64  1  0.50000764  0.46418835  0.02367378  1
  H  H65  1  0.50000261  0.57223112  0.01133400  1
  H  H66  1  0.50000225  0.66080020  0.00493249  1
  H  H67  1  0.50000871  0.77566349  -0.00605395  1
