# generated using pymatgen
data_H11C45
_symmetry_space_group_name_H-M   'P 1'
_cell_length_a   10.00000000
_cell_length_b   29.89204000
_cell_length_c   14.86599455
_cell_angle_alpha   90.00000000
_cell_angle_beta   90.00000000
_cell_angle_gamma   90.00000000
_symmetry_Int_Tables_number   1
_chemical_formula_structural   H11C45
_chemical_formula_sum   'H22 C90'
_cell_volume   4443.74903814
_cell_formula_units_Z   2
loop_
 _symmetry_equiv_pos_site_id
 _symmetry_equiv_pos_as_xyz
  1  'x, y, z'
loop_
 _atom_site_type_symbol
 _atom_site_label
 _atom_site_symmetry_multiplicity
 _atom_site_fract_x
 _atom_site_fract_y
 _atom_site_fract_z
 _atom_site_occupancy
  C  C0  1  0.49999941  0.84691163  0.57195782  1
  C  C1  1  0.49999944  0.83908230  0.73408120  1
  C  C2  1  0.50000035  0.83421144  0.89835954  1
  C  C3  1  0.49999901  0.16469925  0.52681026  1
  C  C4  1  0.50000026  0.16400291  0.68954253  1
  C  C5  1  0.50000006  0.15771502  0.85097594  1
  C  C6  1  0.49999977  0.18776220  0.60765501  1
  C  C7  1  0.50000005  0.18510323  0.77360403  1
  C  C8  1  0.50000057  0.17795412  0.93411216  1
  C  C9  1  0.49999974  0.23681717  0.61528417  1
  C  C10  1  0.49999997  0.23359667  0.78165059  1
  C  C11  1  0.50000098  0.22456889  0.94182327  1
  C  C12  1  0.49999978  0.26234446  0.53793717  1
  C  C13  1  0.49999987  0.25913502  0.70075689  1
  C  C14  1  0.50000029  0.25514441  0.86809715  1
  C  C15  1  0.49999939  0.31101518  0.04194598  1
  C  C16  1  0.49999999  0.31066176  0.20627008  1
  C  C17  1  0.50000012  0.31068983  0.37184593  1
  C  C18  1  0.49999989  0.30894098  0.53879054  1
  C  C19  1  0.49999997  0.30704070  0.70453336  1
  C  C20  1  0.50000008  0.30478445  0.87266804  1
  C  C21  1  0.49999992  0.33397538  0.12408418  1
  C  C22  1  0.50000013  0.33342654  0.28880442  1
  C  C23  1  0.50000001  0.33297630  0.45410449  1
  C  C24  1  0.49999995  0.33208608  0.62257065  1
  C  C25  1  0.50000005  0.32984650  0.79042444  1
  C  C26  1  0.49999993  0.33061876  0.95668084  1
  C  C27  1  0.50000019  0.38152755  0.12297284  1
  C  C28  1  0.50000012  0.38137275  0.28931213  1
  C  C29  1  0.50000001  0.38085092  0.45596486  1
  C  C30  1  0.50000001  0.38013866  0.62313400  1
  C  C31  1  0.50000006  0.37867350  0.78979070  1
  C  C32  1  0.50000016  0.37927831  0.95546234  1
  C  C33  1  0.50000014  0.40384806  0.03858034  1
  C  C34  1  0.50000017  0.40480857  0.20605808  1
  C  C35  1  0.50000004  0.40459410  0.37289598  1
  C  C36  1  0.50000002  0.40420528  0.53993063  1
  C  C37  1  0.50000005  0.40337720  0.70681470  1
  C  C38  1  0.50000012  0.40314574  0.87241088  1
  C  C39  1  0.50000008  0.45173652  0.03856563  1
  C  C40  1  0.50000007  0.45217923  0.20593938  1
  C  C41  1  0.50000000  0.45229786  0.37334499  1
  C  C42  1  0.50000002  0.45217142  0.54032830  1
  C  C43  1  0.50000004  0.45174993  0.70649080  1
  C  C44  1  0.50000010  0.45149186  0.87215003  1
  C  C45  1  0.50000003  0.47530854  0.12220737  1
  C  C46  1  0.49999998  0.47535483  0.28957552  1
  C  C47  1  0.50000000  0.47590666  0.45704380  1
  C  C48  1  0.49999999  0.47609954  0.62353208  1
  C  C49  1  0.50000005  0.47583741  0.78920578  1
  C  C50  1  0.50000006  0.47549439  0.95527490  1
  C  C51  1  0.49999994  0.52300583  0.12263747  1
  C  C52  1  0.49999991  0.52271975  0.28940564  1
  C  C53  1  0.49999997  0.52377787  0.45724258  1
  C  C54  1  0.49999993  0.52443898  0.62338206  1
  C  C55  1  0.50000001  0.52420450  0.78885892  1
  C  C56  1  0.50000001  0.52345639  0.95555844  1
  C  C57  1  0.49999995  0.54676470  0.03955719  1
  C  C58  1  0.49999990  0.54620652  0.20623051  1
  C  C59  1  0.49999992  0.54597042  0.37256619  1
  C  C60  1  0.49999992  0.54834525  0.54046337  1
  C  C61  1  0.49999998  0.54896586  0.70605567  1
  C  C62  1  0.50000002  0.54757153  0.87237387  1
  C  C63  1  0.49999990  0.59463492  0.04151080  1
  C  C64  1  0.49999986  0.59414516  0.20683696  1
  C  C65  1  0.50000008  0.59348890  0.37152935  1
  C  C66  1  0.50000006  0.59702389  0.53923502  1
  C  C67  1  0.49999996  0.59774891  0.70553212  1
  C  C68  1  0.50000004  0.59561107  0.87287565  1
  C  C69  1  0.49999978  0.61688355  0.12375484  1
  C  C70  1  0.50000000  0.61688115  0.28940764  1
  C  C71  1  0.50000050  0.61640885  0.45375923  1
  C  C72  1  0.49999988  0.62285818  0.62352372  1
  C  C73  1  0.50000002  0.62076263  0.79100020  1
  C  C74  1  0.50000004  0.61871616  0.95669640  1
  C  C75  1  0.49999956  0.67230975  0.62833449  1
  C  C76  1  0.50000008  0.66873118  0.79483607  1
  C  C77  1  0.50000023  0.66519716  0.95753336  1
  C  C78  1  0.49999890  0.70237823  0.55393573  1
  C  C79  1  0.49999977  0.69467016  0.71403290  1
  C  C80  1  0.50000037  0.69093522  0.88006972  1
  C  C81  1  0.49999901  0.74835362  0.56038895  1
  C  C82  1  0.49999956  0.74316120  0.72106197  1
  C  C83  1  0.50000052  0.73952856  0.88742623  1
  C  C84  1  0.49999939  0.77046619  0.64295680  1
  C  C85  1  0.49999978  0.76492738  0.80735108  1
  C  C86  1  0.50000177  0.76197046  0.97109505  1
  C  C87  1  0.49999945  0.81955845  0.64729515  1
  C  C88  1  0.49999974  0.81321795  0.81269376  1
  C  C89  1  0.50000153  0.80873425  0.97627099  1
  H  H90  1  0.49999938  0.88332350  0.58065194  1
  H  H91  1  0.49999942  0.87568134  0.73987105  1
  H  H92  1  0.50000016  0.87085825  0.90153569  1
  H  H93  1  0.49999903  0.12803869  0.52696586  1
  H  H94  1  0.50000053  0.12731322  0.68774371  1
  H  H95  1  0.49999990  0.12127370  0.84315606  1
  H  H96  1  0.49999927  0.83433335  0.50292690  1
  H  H97  1  0.49999813  0.18093071  0.46092411  1
  H  H98  1  0.49999981  0.24498229  0.47363428  1
  H  H99  1  0.49999803  0.27550774  0.05083142  1
  H  H100  1  0.49999998  0.27395253  0.20576799  1
  H  H101  1  0.50000017  0.27418804  0.36872195  1
  H  H102  1  0.49999965  0.65338465  0.12700632  1
  H  H103  1  0.50000001  0.65359964  0.28998175  1
  H  H104  1  0.50000156  0.65185631  0.44421103  1
  H  H105  1  0.49999775  0.69175414  0.48502744  1
  H  H106  1  0.49999857  0.76749955  0.49769332  1
  H  H107  1  0.50000076  0.15798585  -0.00404291  1
  H  H108  1  0.50000243  0.23471989  0.01115118  1
  H  H109  1  0.50000021  0.68230709  0.02198330  1
  H  H110  1  0.50000326  0.74328797  0.03429399  1
  H  H111  1  0.50000227  0.82503617  0.04233077  1
