# generated using pymatgen
data_H3C7
_symmetry_space_group_name_H-M   'P 1'
_cell_length_a   10.00000000
_cell_length_b   21.36688000
_cell_length_c   14.93189470
_cell_angle_alpha   90.00000000
_cell_angle_beta   90.00000000
_cell_angle_gamma   90.00000000
_symmetry_Int_Tables_number   1
_chemical_formula_structural   H3C7
_chemical_formula_sum   'H18 C42'
_cell_volume   3190.48002208
_cell_formula_units_Z   6
loop_
 _symmetry_equiv_pos_site_id
 _symmetry_equiv_pos_as_xyz
  1  'x, y, z'
loop_
 _atom_site_type_symbol
 _atom_site_label
 _atom_site_symmetry_multiplicity
 _atom_site_fract_x
 _atom_site_fract_y
 _atom_site_fract_z
 _atom_site_occupancy
  C  C0  1  0.50000056  0.23131007  0.53859439  1
  C  C1  1  0.50000080  0.23210836  0.69997746  1
  C  C2  1  0.50000029  0.22378453  0.86058307  1
  C  C3  1  0.50000071  0.26480223  0.61799662  1
  C  C4  1  0.50000045  0.26196231  0.78330468  1
  C  C5  1  0.50000008  0.25234409  0.94312944  1
  C  C6  1  0.50000035  0.33355306  0.62427539  1
  C  C7  1  0.50000019  0.32984418  0.79046434  1
  C  C8  1  0.50000007  0.31764409  0.95016213  1
  C  C9  1  0.50000006  0.36857705  0.54636978  1
  C  C10  1  0.50000013  0.36512239  0.70930768  1
  C  C11  1  0.50000011  0.36003539  0.87647163  1
  C  C12  1  0.50000011  0.43866074  0.04976456  1
  C  C13  1  0.49999966  0.43744013  0.21369223  1
  C  C14  1  0.49999966  0.43711246  0.37845475  1
  C  C15  1  0.49999982  0.43388688  0.54588691  1
  C  C16  1  0.49999973  0.43224115  0.71240565  1
  C  C17  1  0.50000000  0.42956387  0.88065844  1
  C  C18  1  0.50000003  0.47028509  0.13216949  1
  C  C19  1  0.49999986  0.46932021  0.29552640  1
  C  C20  1  0.49999983  0.46759227  0.46061532  1
  C  C21  1  0.49999966  0.46596622  0.62943802  1
  C  C22  1  0.49999969  0.46436254  0.79879795  1
  C  C23  1  0.50000002  0.46573767  0.96450724  1
  C  C24  1  0.50000022  0.53738891  0.13163976  1
  C  C25  1  0.50000034  0.53729261  0.29577192  1
  C  C26  1  0.50000001  0.53528368  0.46139958  1
  C  C27  1  0.49999954  0.53329727  0.62957769  1
  C  C28  1  0.49999949  0.53339224  0.79872893  1
  C  C29  1  0.49999980  0.53444755  0.96394458  1
  C  C30  1  0.49999990  0.56591544  0.04658411  1
  C  C31  1  0.50000051  0.56995569  0.21375026  1
  C  C32  1  0.50000041  0.56766514  0.37992304  1
  C  C33  1  0.49999972  0.56726729  0.54678283  1
  C  C34  1  0.49999946  0.56517421  0.71303359  1
  C  C35  1  0.49999963  0.56877713  0.88032446  1
  C  C36  1  0.49999936  0.63385481  0.54886284  1
  C  C37  1  0.49999948  0.63230638  0.71095394  1
  C  C38  1  0.49999984  0.63856833  0.87668343  1
  C  C39  1  0.49999923  0.66542546  0.62823568  1
  C  C40  1  0.49999987  0.66580918  0.78963261  1
  C  C41  1  0.50000017  0.68546639  0.94182271  1
  H  H42  1  0.50000070  0.18004006  0.54112640  1
  H  H43  1  0.50000113  0.18078610  0.69866617  1
  H  H44  1  0.50000022  0.17278153  0.85282437  1
  H  H45  1  0.49999904  0.71674891  0.63000428  1
  H  H46  1  0.50000008  0.71699577  0.78482243  1
  H  H47  1  0.50000008  0.73370243  0.91662315  1
  H  H48  1  0.50000030  0.25279105  0.47217799  1
  H  H49  1  0.50000021  0.34372823  0.48275553  1
  H  H50  1  0.50000029  0.38900402  0.05902203  1
  H  H51  1  0.49999917  0.38606932  0.21298355  1
  H  H52  1  0.49999952  0.38599668  0.37438306  1
  H  H53  1  0.49999954  0.61623693  0.04723408  1
  H  H54  1  0.50000060  0.62136718  0.21402284  1
  H  H55  1  0.50000067  0.61882991  0.37854747  1
  H  H56  1  0.49999925  0.66058549  0.48656907  1
  H  H57  1  0.49999992  0.22442152  0.00471818  1
  H  H58  1  0.49999985  0.33252074  0.01893049  1
  H  H59  1  0.50000059  0.68266001  0.01438341  1
