# generated using pymatgen
data_H13C33
_symmetry_space_group_name_H-M   'P 1'
_cell_length_a   10.00000000
_cell_length_b   29.89204000
_cell_length_c   14.92414368
_cell_angle_alpha   90.00000000
_cell_angle_beta   90.00000000
_cell_angle_gamma   90.00000000
_symmetry_Int_Tables_number   1
_chemical_formula_structural   H13C33
_chemical_formula_sum   'H26 C66'
_cell_volume   4461.13099794
_cell_formula_units_Z   2
loop_
 _symmetry_equiv_pos_site_id
 _symmetry_equiv_pos_as_xyz
  1  'x, y, z'
loop_
 _atom_site_type_symbol
 _atom_site_label
 _atom_site_symmetry_multiplicity
 _atom_site_fract_x
 _atom_site_fract_y
 _atom_site_fract_z
 _atom_site_occupancy
  C  C0  1  0.49999851  0.18759140  0.54282545  1
  C  C1  1  0.49999964  0.20100268  0.69504845  1
  C  C2  1  0.50000013  0.20061638  0.85678944  1
  C  C3  1  0.49999779  0.22097358  0.60845031  1
  C  C4  1  0.50000015  0.22453468  0.77427565  1
  C  C5  1  0.49999994  0.22286916  0.93656793  1
  C  C6  1  0.49999899  0.27002244  0.10698955  1
  C  C7  1  0.49999558  0.26941915  0.27372978  1
  C  C8  1  0.49999592  0.27318667  0.44041320  1
  C  C9  1  0.49999705  0.27089353  0.60592321  1
  C  C10  1  0.50000028  0.27255918  0.77306616  1
  C  C11  1  0.49999992  0.27042181  0.93933406  1
  C  C12  1  0.49999958  0.29307280  0.02514448  1
  C  C13  1  0.49999875  0.29207926  0.19095716  1
  C  C14  1  0.49999704  0.29327073  0.35522073  1
  C  C15  1  0.49999654  0.29587061  0.52277343  1
  C  C16  1  0.50000005  0.29573221  0.68792405  1
  C  C17  1  0.50000001  0.29505622  0.85676350  1
  C  C18  1  0.49999944  0.34142299  0.02586448  1
  C  C19  1  0.50000122  0.34063480  0.19075864  1
  C  C20  1  0.50001050  0.34121480  0.35427982  1
  C  C21  1  0.50000699  0.34507340  0.52232133  1
  C  C22  1  0.50000026  0.34507795  0.68851283  1
  C  C23  1  0.50000007  0.34322964  0.85717982  1
  C  C24  1  0.49999965  0.36338074  0.10764478  1
  C  C25  1  0.50000925  0.36398416  0.27196383  1
  C  C26  1  0.50002925  0.36421084  0.43661625  1
  C  C27  1  0.50000007  0.37050655  0.60735815  1
  C  C28  1  0.50000053  0.36793181  0.77486037  1
  C  C29  1  0.50000027  0.36584159  0.94095987  1
  C  C30  1  0.49999176  0.41993903  0.61379380  1
  C  C31  1  0.50000377  0.41593293  0.77937179  1
  C  C32  1  0.50000127  0.41237924  0.94173715  1
  C  C33  1  0.49996748  0.44987925  0.53979240  1
  C  C34  1  0.50000286  0.44212144  0.69935622  1
  C  C35  1  0.50000348  0.43813350  0.86435002  1
  C  C36  1  0.49998538  0.49576279  0.54611467  1
  C  C37  1  0.50000447  0.49060726  0.70654393  1
  C  C38  1  0.50000332  0.48671011  0.87136130  1
  C  C39  1  0.50000437  0.51783746  0.62887273  1
  C  C40  1  0.50000416  0.51281840  0.79234997  1
  C  C41  1  0.50000219  0.50910189  0.95479170  1
  C  C42  1  0.50000482  0.56629938  0.63405797  1
  C  C43  1  0.50000329  0.56095119  0.79844411  1
  C  C44  1  0.50000170  0.55522064  0.96073644  1
  C  C45  1  0.50000171  0.59306070  0.55616765  1
  C  C46  1  0.50000330  0.58785824  0.71864566  1
  C  C47  1  0.50000206  0.58245790  0.88352076  1
  C  C48  1  0.49999876  0.63917272  0.56104844  1
  C  C49  1  0.50000106  0.63579830  0.72390359  1
  C  C50  1  0.50000161  0.63115814  0.88942681  1
  C  C51  1  0.49999944  0.66176902  0.64399569  1
  C  C52  1  0.50000079  0.65747190  0.80995529  1
  C  C53  1  0.50000235  0.65372741  0.97259065  1
  C  C54  1  0.49999895  0.71045005  0.64890826  1
  C  C55  1  0.50000062  0.70546559  0.81520294  1
  C  C56  1  0.50000185  0.69999445  0.97768724  1
  C  C57  1  0.49999759  0.73739008  0.57126829  1
  C  C58  1  0.50000018  0.73153182  0.73420499  1
  C  C59  1  0.50000103  0.72696019  0.90038303  1
  C  C60  1  0.49999800  0.78413032  0.57676012  1
  C  C61  1  0.50000026  0.77970527  0.73993524  1
  C  C62  1  0.50000101  0.77614293  0.90623928  1
  C  C63  1  0.49999951  0.80524319  0.65960085  1
  C  C64  1  0.50000060  0.80044851  0.82439863  1
  C  C65  1  0.50000100  0.79898093  0.98705392  1
  H  H66  1  0.50000046  0.15300412  0.56737955  1
  H  H67  1  0.50000041  0.16437556  0.69844722  1
  H  H68  1  0.49999985  0.16397631  0.85488481  1
  H  H69  1  0.50000001  0.84183799  0.66394004  1
  H  H70  1  0.50000077  0.83712420  0.82749826  1
  H  H71  1  0.50000004  0.83562303  0.98821360  1
  H  H72  1  0.49999771  0.18958930  0.47028084  1
  H  H73  1  0.49999875  0.23344194  0.10845714  1
  H  H74  1  0.49999346  0.23269123  0.27464153  1
  H  H75  1  0.49999644  0.23723052  0.44050744  1
  H  H76  1  0.50000040  0.39989033  0.11102211  1
  H  H77  1  0.50001065  0.40068062  0.27099731  1
  H  H78  1  0.50008045  0.39973100  0.42645080  1
  H  H79  1  0.49991562  0.43868157  0.47155878  1
  H  H80  1  0.49997508  0.51468941  0.48348076  1
  H  H81  1  0.50000123  0.57744181  0.49000741  1
  H  H82  1  0.49999604  0.65816087  0.49847076  1
  H  H83  1  0.49999663  0.72187546  0.50497029  1
  H  H84  1  0.49999721  0.80390291  0.51489738  1
  H  H85  1  0.49999959  0.20358316  -0.00128410  1
  H  H86  1  0.50000030  0.42944218  0.00596933  1
  H  H87  1  0.50000225  0.49030958  0.01755931  1
  H  H88  1  0.50000128  0.57041522  0.02738300  1
  H  H89  1  0.50000285  0.63480974  0.03529715  1
  H  H90  1  0.50000268  0.71566022  0.04394913  1
  H  H91  1  0.50000044  0.78205238  0.05193194  1
