# generated using pymatgen
data_H2C5
_symmetry_space_group_name_H-M   'P 1'
_cell_length_a   10.00000000
_cell_length_b   25.62946000
_cell_length_c   14.93602572
_cell_angle_alpha   90.00000000
_cell_angle_beta   90.00000000
_cell_angle_gamma   90.00000000
_symmetry_Int_Tables_number   1
_chemical_formula_structural   H2C5
_chemical_formula_sum   'H24 C60'
_cell_volume   3828.02273830
_cell_formula_units_Z   12
loop_
 _symmetry_equiv_pos_site_id
 _symmetry_equiv_pos_as_xyz
  1  'x, y, z'
loop_
 _atom_site_type_symbol
 _atom_site_label
 _atom_site_symmetry_multiplicity
 _atom_site_fract_x
 _atom_site_fract_y
 _atom_site_fract_z
 _atom_site_occupancy
  C  C0  1  0.50000068  0.82095471  0.57807978  1
  C  C1  1  0.50001115  0.81067539  0.73917500  1
  C  C2  1  0.50001310  0.80502055  0.90345499  1
  C  C3  1  0.50000421  0.17707003  0.54797022  1
  C  C4  1  0.49999955  0.19312788  0.70034300  1
  C  C5  1  0.49999780  0.19343801  0.86207023  1
  C  C6  1  0.50000351  0.21605629  0.61338667  1
  C  C7  1  0.49999940  0.22092828  0.77916715  1
  C  C8  1  0.49999834  0.21986130  0.94135272  1
  C  C9  1  0.50000244  0.27528520  0.11060414  1
  C  C10  1  0.50000567  0.27384066  0.27666833  1
  C  C11  1  0.50000552  0.27711098  0.44369774  1
  C  C12  1  0.50000448  0.27426116  0.60988057  1
  C  C13  1  0.50000053  0.27691610  0.77708183  1
  C  C14  1  0.50000023  0.27529310  0.94332618  1
  C  C15  1  0.50000111  0.30197664  0.02881546  1
  C  C16  1  0.50000253  0.30088729  0.19451307  1
  C  C17  1  0.50000460  0.30098075  0.35868525  1
  C  C18  1  0.50000487  0.30319189  0.52642801  1
  C  C19  1  0.50000113  0.30353057  0.69154814  1
  C  C20  1  0.50000077  0.30355767  0.86037664  1
  C  C21  1  0.50000075  0.35832785  0.02947139  1
  C  C22  1  0.49999990  0.35754012  0.19458778  1
  C  C23  1  0.49999195  0.35691403  0.35804569  1
  C  C24  1  0.49999442  0.36055687  0.52597331  1
  C  C25  1  0.49999994  0.36107774  0.69166859  1
  C  C26  1  0.50000014  0.35962602  0.86043036  1
  C  C27  1  0.50000078  0.38401628  0.11127300  1
  C  C28  1  0.49999274  0.38420480  0.27633497  1
  C  C29  1  0.49997365  0.38313461  0.44066848  1
  C  C30  1  0.49999973  0.39052255  0.61035832  1
  C  C31  1  0.49999869  0.38794279  0.77769977  1
  C  C32  1  0.49999917  0.38626411  0.94400580  1
  C  C33  1  0.50000526  0.44830565  0.61559747  1
  C  C34  1  0.49999327  0.44393078  0.78115541  1
  C  C35  1  0.49999641  0.44044523  0.94380009  1
  C  C36  1  0.50002752  0.48333967  0.54161154  1
  C  C37  1  0.49999258  0.47439174  0.70090736  1
  C  C38  1  0.49999311  0.46995164  0.86583375  1
  C  C39  1  0.50000609  0.53689323  0.54777394  1
  C  C40  1  0.49998856  0.53097987  0.70782678  1
  C  C41  1  0.49999245  0.52647879  0.87249398  1
  C  C42  1  0.49998673  0.56280659  0.63022150  1
  C  C43  1  0.49998983  0.55683333  0.79356124  1
  C  C44  1  0.49999592  0.55223805  0.95602201  1
  C  C45  1  0.49998666  0.61943547  0.63530469  1
  C  C46  1  0.49999151  0.61290665  0.79988427  1
  C  C47  1  0.49999708  0.60590661  0.96224772  1
  C  C48  1  0.49998908  0.65102779  0.55780453  1
  C  C49  1  0.49999092  0.64432384  0.72007076  1
  C  C50  1  0.49999537  0.63764201  0.88521582  1
  C  C51  1  0.49999489  0.70498355  0.56330823  1
  C  C52  1  0.49999674  0.70020443  0.72580559  1
  C  C53  1  0.49999944  0.69437895  0.89186319  1
  C  C54  1  0.49999825  0.73096379  0.64628004  1
  C  C55  1  0.50000159  0.72469927  0.81227258  1
  C  C56  1  0.50000237  0.72035897  0.97524169  1
  C  C57  1  0.50000390  0.78833295  0.65213093  1
  C  C58  1  0.50000905  0.78083723  0.81796599  1
  C  C59  1  0.50000900  0.77492034  0.98066547  1
  H  H60  1  0.50000575  0.86336871  0.58766139  1
  H  H61  1  0.50001657  0.85334261  0.74501525  1
  H  H62  1  0.50001920  0.84773868  0.90709937  1
  H  H63  1  0.50000040  0.13674332  0.57266506  1
  H  H64  1  0.49999751  0.15042308  0.70465931  1
  H  H65  1  0.49999635  0.15066793  0.86086815  1
  H  H66  1  0.49999151  0.80681532  0.50903694  1
  H  H67  1  0.50000818  0.17960727  0.47547648  1
  H  H68  1  0.50000369  0.23265102  0.11199058  1
  H  H69  1  0.50000769  0.23099887  0.27633842  1
  H  H70  1  0.50000451  0.23513884  0.44282424  1
  H  H71  1  0.50000015  0.42664342  0.11476307  1
  H  H72  1  0.49999093  0.42704891  0.27669757  1
  H  H73  1  0.49992495  0.42453979  0.43137016  1
  H  H74  1  0.50008105  0.47090587  0.47304379  1
  H  H75  1  0.50001549  0.55875434  0.48491222  1
  H  H76  1  0.49998737  0.63320806  0.49132924  1
  H  H77  1  0.49999757  0.72769816  0.50126134  1
  H  H78  1  0.49999685  0.19777461  0.00383544  1
  H  H79  1  0.49999669  0.46066639  0.00767249  1
  H  H80  1  0.49999896  0.53004867  0.01841667  1
  H  H81  1  0.50000049  0.62341160  0.02895707  1
  H  H82  1  0.49999987  0.69800725  0.03757075  1
  H  H83  1  0.50001122  0.79376973  0.04652587  1
