# generated using pymatgen
data_HC3
_symmetry_space_group_name_H-M   'P 1'
_cell_length_a   10.00000000
_cell_length_b   29.89204000
_cell_length_c   14.84178979
_cell_angle_alpha   90.00000000
_cell_angle_beta   90.00000000
_cell_angle_gamma   90.00000000
_symmetry_Int_Tables_number   1
_chemical_formula_structural   HC3
_chemical_formula_sum   'H26 C78'
_cell_volume   4436.51374200
_cell_formula_units_Z   26
loop_
 _symmetry_equiv_pos_site_id
 _symmetry_equiv_pos_as_xyz
  1  'x, y, z'
loop_
 _atom_site_type_symbol
 _atom_site_label
 _atom_site_symmetry_multiplicity
 _atom_site_fract_x
 _atom_site_fract_y
 _atom_site_fract_z
 _atom_site_occupancy
  C  C0  1  0.49999929  0.84035381  0.54645801  1
  C  C1  1  0.49999963  0.83781417  0.70965021  1
  C  C2  1  0.50000056  0.83912637  0.87513141  1
  C  C3  1  0.50000001  0.16242925  0.03548260  1
  C  C4  1  0.50000002  0.16044903  0.20289847  1
  C  C5  1  0.49999996  0.16074211  0.37213870  1
  C  C6  1  0.49999995  0.16267055  0.53965923  1
  C  C7  1  0.49999994  0.16441335  0.70491231  1
  C  C8  1  0.50000002  0.16431652  0.86969613  1
  C  C9  1  0.50000001  0.18404959  0.11985989  1
  C  C10  1  0.49999997  0.18245784  0.28726809  1
  C  C11  1  0.49999996  0.18428184  0.45536612  1
  C  C12  1  0.49999995  0.18672518  0.62157871  1
  C  C13  1  0.49999998  0.18771059  0.78725016  1
  C  C14  1  0.50000001  0.18641301  0.95331798  1
  C  C15  1  0.49999999  0.23260180  0.12019675  1
  C  C16  1  0.49999997  0.23074532  0.28689330  1
  C  C17  1  0.49999997  0.23276716  0.45499417  1
  C  C18  1  0.49999997  0.23534911  0.62120825  1
  C  C19  1  0.50000000  0.23626330  0.78717848  1
  C  C20  1  0.50000000  0.23495144  0.95371361  1
  C  C21  1  0.50000001  0.25750708  0.03801044  1
  C  C22  1  0.49999999  0.25497702  0.20433934  1
  C  C23  1  0.49999997  0.25417938  0.36980496  1
  C  C24  1  0.49999996  0.25808065  0.53727645  1
  C  C25  1  0.50000000  0.25999739  0.70366531  1
  C  C26  1  0.50000001  0.25931644  0.87091544  1
  C  C27  1  0.50000003  0.30588130  0.03972978  1
  C  C28  1  0.50000001  0.30320509  0.20489536  1
  C  C29  1  0.50000003  0.30173096  0.36856935  1
  C  C30  1  0.50000002  0.30680992  0.53578148  1
  C  C31  1  0.50000004  0.30872514  0.70297732  1
  C  C32  1  0.50000005  0.30755565  0.87128325  1
  C  C33  1  0.50000003  0.32706084  0.12271805  1
  C  C34  1  0.50000004  0.32558456  0.28728287  1
  C  C35  1  0.50000016  0.32527175  0.44982421  1
  C  C36  1  0.50000001  0.33280369  0.62020630  1
  C  C37  1  0.50000009  0.33223758  0.78854994  1
  C  C38  1  0.50000006  0.33095071  0.95488818  1
  C  C39  1  0.49999993  0.38181458  0.62410657  1
  C  C40  1  0.50000026  0.38022951  0.79100776  1
  C  C41  1  0.50000014  0.37790467  0.95436816  1
  C  C42  1  0.49999927  0.41017541  0.54759273  1
  C  C43  1  0.50000024  0.40516287  0.70876342  1
  C  C44  1  0.50000033  0.40348314  0.87551927  1
  C  C45  1  0.49999906  0.45583036  0.55030762  1
  C  C46  1  0.50000031  0.45356933  0.71214178  1
  C  C47  1  0.50000054  0.45263835  0.87826583  1
  C  C48  1  0.49999977  0.47907878  0.63183250  1
  C  C49  1  0.50000042  0.47734793  0.79651770  1
  C  C50  1  0.50000068  0.47742542  0.95944413  1
  C  C51  1  0.49999948  0.52726431  0.63174837  1
  C  C52  1  0.50000051  0.52566572  0.79748080  1
  C  C53  1  0.50000088  0.52385620  0.96052107  1
  C  C54  1  0.49999863  0.55157530  0.55018360  1
  C  C55  1  0.49999997  0.55064516  0.71448314  1
  C  C56  1  0.50000100  0.54950657  0.88043856  1
  C  C57  1  0.49999828  0.59759671  0.54983080  1
  C  C58  1  0.49999977  0.59859263  0.71404810  1
  C  C59  1  0.50000106  0.59855822  0.88043407  1
  C  C60  1  0.49999895  0.62219626  0.63087873  1
  C  C61  1  0.50000030  0.62275699  0.79765818  1
  C  C62  1  0.50000160  0.62380278  0.96094401  1
  C  C63  1  0.49999896  0.67068530  0.62986579  1
  C  C64  1  0.50000015  0.67086386  0.79682997  1
  C  C65  1  0.50000161  0.67016625  0.96027966  1
  C  C66  1  0.49999845  0.69497899  0.54823259  1
  C  C67  1  0.49999962  0.69476244  0.71230548  1
  C  C68  1  0.50000083  0.69503965  0.87938951  1
  C  C69  1  0.49999857  0.74120945  0.54705034  1
  C  C70  1  0.49999957  0.74279296  0.71094781  1
  C  C71  1  0.50000071  0.74393015  0.87856390  1
  C  C72  1  0.49999900  0.76626037  0.62721229  1
  C  C73  1  0.49999993  0.76690457  0.79460933  1
  C  C74  1  0.50000137  0.76950069  0.95856995  1
  C  C75  1  0.49999917  0.81545204  0.62530696  1
  C  C76  1  0.49999999  0.81517833  0.79257084  1
  C  C77  1  0.50000123  0.81639216  0.95660110  1
  H  H78  1  0.49999975  0.87697089  0.55009473  1
  H  H79  1  0.49999987  0.87451974  0.70989013  1
  H  H80  1  0.50000043  0.87578391  0.87311071  1
  H  H81  1  0.50000003  0.12575021  0.03316541  1
  H  H82  1  0.50000008  0.12374900  0.20121260  1
  H  H83  1  0.49999994  0.12404441  0.37403868  1
  H  H84  1  0.49999993  0.12599178  0.54233164  1
  H  H85  1  0.49999991  0.12771010  0.70606196  1
  H  H86  1  0.50000006  0.12762590  0.86846439  1
  H  H87  1  0.49999911  0.82549556  0.47917284  1
  H  H88  1  0.50000008  0.36355179  0.12790210  1
  H  H89  1  0.50000003  0.36230442  0.28895515  1
  H  H90  1  0.50000050  0.36033839  0.43653903  1
  H  H91  1  0.49999872  0.39808394  0.47993541  1
  H  H92  1  0.49999865  0.47347101  0.48593138  1
  H  H93  1  0.49999879  0.53427136  0.48541531  1
  H  H94  1  0.49999806  0.61477387  0.48488953  1
  H  H95  1  0.49999867  0.67738709  0.48372334  1
  H  H96  1  0.49999872  0.75829803  0.48185824  1
  H  H97  1  0.50000006  0.39543075  0.01874793  1
  H  H98  1  0.50000050  0.46014254  0.02441631  1
  H  H99  1  0.50000084  0.54061425  0.02604464  1
  H  H100  1  0.50000210  0.60684798  0.02626531  1
  H  H101  1  0.50000217  0.68758555  0.02507887  1
  H  H102  1  0.50000149  0.75293839  0.02424083  1
  H  H103  1  0.50000129  0.83514448  0.02009044  1
