# generated using pymatgen
data_H2C7
_symmetry_space_group_name_H-M   'P 1'
_cell_length_a   10.00000000
_cell_length_b   29.89204000
_cell_length_c   14.87795727
_cell_angle_alpha   90.00000000
_cell_angle_beta   90.00000000
_cell_angle_gamma   90.00000000
_symmetry_Int_Tables_number   1
_chemical_formula_structural   H2C7
_chemical_formula_sum   'H24 C84'
_cell_volume   4447.32493972
_cell_formula_units_Z   12
loop_
 _symmetry_equiv_pos_site_id
 _symmetry_equiv_pos_as_xyz
  1  'x, y, z'
loop_
 _atom_site_type_symbol
 _atom_site_label
 _atom_site_symmetry_multiplicity
 _atom_site_fract_x
 _atom_site_fract_y
 _atom_site_fract_z
 _atom_site_occupancy
  C  C0  1  0.49999812  0.83443260  0.52209853  1
  C  C1  1  0.49999966  0.83643895  0.68533948  1
  C  C2  1  0.50000143  0.84144970  0.85030206  1
  C  C3  1  0.49999855  0.16548753  0.53602016  1
  C  C4  1  0.50000054  0.16407452  0.69875771  1
  C  C5  1  0.50000008  0.15754202  0.85994723  1
  C  C6  1  0.49999967  0.18807329  0.61730955  1
  C  C7  1  0.50000031  0.18509004  0.78293719  1
  C  C8  1  0.50000049  0.17751373  0.94331132  1
  C  C9  1  0.49999980  0.23702235  0.62593372  1
  C  C10  1  0.50000007  0.23359017  0.79188609  1
  C  C11  1  0.50000105  0.22412360  0.95186533  1
  C  C12  1  0.50000008  0.26261792  0.54897266  1
  C  C13  1  0.49999992  0.25925076  0.71138529  1
  C  C14  1  0.50000033  0.25491250  0.87853752  1
  C  C15  1  0.49999873  0.31061220  0.05268328  1
  C  C16  1  0.49999972  0.31009468  0.21722134  1
  C  C17  1  0.50000024  0.31016745  0.38311132  1
  C  C18  1  0.50000016  0.30911894  0.55009438  1
  C  C19  1  0.50000007  0.30715408  0.71560655  1
  C  C20  1  0.50000002  0.30459324  0.88350113  1
  C  C21  1  0.49999969  0.33344719  0.13505533  1
  C  C22  1  0.50000013  0.33270608  0.29995428  1
  C  C23  1  0.50000023  0.33275460  0.46513732  1
  C  C24  1  0.50000010  0.33226215  0.63382635  1
  C  C25  1  0.50000008  0.32982774  0.80158006  1
  C  C26  1  0.49999976  0.33033292  0.96750224  1
  C  C27  1  0.50000050  0.38105796  0.13411895  1
  C  C28  1  0.50000033  0.38061679  0.30069576  1
  C  C29  1  0.50000014  0.38057991  0.46714724  1
  C  C30  1  0.50000005  0.38028566  0.63451626  1
  C  C31  1  0.50000016  0.37871831  0.80114561  1
  C  C32  1  0.50000043  0.37906233  0.96639455  1
  C  C33  1  0.50000061  0.40347425  0.04953105  1
  C  C34  1  0.50000072  0.40395261  0.21768162  1
  C  C35  1  0.50000028  0.40404261  0.38394402  1
  C  C36  1  0.50000001  0.40404823  0.55110464  1
  C  C37  1  0.50000004  0.40350193  0.71841032  1
  C  C38  1  0.50000054  0.40324036  0.88372067  1
  C  C39  1  0.50000090  0.45147940  0.04970876  1
  C  C40  1  0.50000104  0.45124308  0.21788295  1
  C  C41  1  0.50000029  0.45178120  0.38413485  1
  C  C42  1  0.49999990  0.45193646  0.55133430  1
  C  C43  1  0.49999993  0.45202608  0.71864898  1
  C  C44  1  0.50000071  0.45184896  0.88388698  1
  C  C45  1  0.50000111  0.47389400  0.13433506  1
  C  C46  1  0.50000056  0.47492764  0.30075375  1
  C  C47  1  0.50000002  0.47539257  0.46738559  1
  C  C48  1  0.49999986  0.47556680  0.63511552  1
  C  C49  1  0.50000005  0.47656875  0.80154787  1
  C  C50  1  0.50000096  0.47588341  0.96670524  1
  C  C51  1  0.49999892  0.52139682  0.13537557  1
  C  C52  1  0.50000030  0.52285218  0.30016728  1
  C  C53  1  0.50000000  0.52326385  0.46567689  1
  C  C54  1  0.49999968  0.52358669  0.63478926  1
  C  C55  1  0.50000000  0.52543365  0.80211560  1
  C  C56  1  0.49999927  0.52462140  0.96806655  1
  C  C57  1  0.49999511  0.54414553  0.05322967  1
  C  C58  1  0.49999913  0.54512921  0.21719041  1
  C  C59  1  0.50000032  0.54557876  0.38338956  1
  C  C60  1  0.49999951  0.54692048  0.55110279  1
  C  C61  1  0.49999958  0.54861848  0.71683484  1
  C  C62  1  0.50000042  0.55049837  0.88405480  1
  C  C63  1  0.49999885  0.59335907  0.55090056  1
  C  C64  1  0.49999866  0.59654628  0.71346260  1
  C  C65  1  0.50000199  0.59990624  0.87962745  1
  C  C66  1  0.49999822  0.61893267  0.62862930  1
  C  C67  1  0.49999921  0.62246396  0.79417337  1
  C  C68  1  0.50000722  0.62983648  0.95421348  1
  C  C69  1  0.49999801  0.66741789  0.62192976  1
  C  C70  1  0.49999882  0.67099505  0.78751719  1
  C  C71  1  0.50000377  0.67571389  0.94821083  1
  C  C72  1  0.49999757  0.68980444  0.53836809  1
  C  C73  1  0.49999843  0.69320120  0.70146810  1
  C  C74  1  0.49999960  0.69807753  0.86569892  1
  C  C75  1  0.49999790  0.73594812  0.53285466  1
  C  C76  1  0.49999892  0.74128180  0.69573073  1
  C  C77  1  0.50000007  0.74668449  0.86142832  1
  C  C78  1  0.49999858  0.76282031  0.61030785  1
  C  C79  1  0.49999983  0.76767966  0.77615130  1
  C  C80  1  0.50000140  0.77369034  0.93933664  1
  C  C81  1  0.49999877  0.81193962  0.60362033  1
  C  C82  1  0.50000026  0.81577611  0.77002887  1
  C  C83  1  0.50000226  0.82047076  0.93349910  1
  H  H84  1  0.49999781  0.87108312  0.52085249  1
  H  H85  1  0.50000005  0.87309877  0.68220033  1
  H  H86  1  0.50000147  0.87802281  0.84503618  1
  H  H87  1  0.49999872  0.12885491  0.53561014  1
  H  H88  1  0.50000092  0.12740908  0.69676230  1
  H  H89  1  0.49999988  0.12114678  0.85160202  1
  H  H90  1  0.49999690  0.81733201  0.45712145  1
  H  H91  1  0.49999761  0.18207075  0.47054530  1
  H  H92  1  0.50000025  0.24541175  0.48467208  1
  H  H93  1  0.49999645  0.27505085  0.06128667  1
  H  H94  1  0.49999958  0.27339679  0.21662186  1
  H  H95  1  0.50000030  0.27364340  0.38023990  1
  H  H96  1  0.49998553  0.57954895  0.06296680  1
  H  H97  1  0.49999879  0.58182663  0.21572777  1
  H  H98  1  0.50000039  0.58209520  0.38013403  1
  H  H99  1  0.49999895  0.61053165  0.48660733  1
  H  H100  1  0.49999661  0.67102216  0.47540402  1
  H  H101  1  0.49999773  0.75155540  0.46638643  1
  H  H102  1  0.50000048  0.15709610  0.00453261  1
  H  H103  1  0.50000279  0.23406401  0.02133835  1
  H  H104  1  0.50001798  0.61933146  0.02311958  1
  H  H105  1  0.50000644  0.69450682  0.01121759  1
  H  H106  1  0.50000197  0.75836215  0.00597785  1
  H  H107  1  0.50000364  0.84053605  -0.00484168  1
