# generated using pymatgen
data_HC3
_symmetry_space_group_name_H-M   'P 1'
_cell_length_a   10.00000000
_cell_length_b   17.10430000
_cell_length_c   14.82673955
_cell_angle_alpha   90.00000000
_cell_angle_beta   90.00000000
_cell_angle_gamma   90.00000000
_symmetry_Int_Tables_number   1
_chemical_formula_structural   HC3
_chemical_formula_sum   'H14 C42'
_cell_volume   2536.01001268
_cell_formula_units_Z   14
loop_
 _symmetry_equiv_pos_site_id
 _symmetry_equiv_pos_as_xyz
  1  'x, y, z'
loop_
 _atom_site_type_symbol
 _atom_site_label
 _atom_site_symmetry_multiplicity
 _atom_site_fract_x
 _atom_site_fract_y
 _atom_site_fract_z
 _atom_site_occupancy
  C  C0  1  0.49999998  0.73098746  0.55864291  1
  C  C1  1  0.49999998  0.70845386  0.71349832  1
  C  C2  1  0.50000000  0.70716360  0.87770483  1
  C  C3  1  0.50000004  0.28959105  0.03873295  1
  C  C4  1  0.50000004  0.28804627  0.20617999  1
  C  C5  1  0.50000000  0.28894551  0.37428627  1
  C  C6  1  0.49999998  0.29091611  0.54100942  1
  C  C7  1  0.49999996  0.29248736  0.70666298  1
  C  C8  1  0.49999999  0.29197164  0.87212099  1
  C  C9  1  0.50000003  0.32831154  0.12276730  1
  C  C10  1  0.50000002  0.32746246  0.28996257  1
  C  C11  1  0.49999999  0.32978488  0.45735974  1
  C  C12  1  0.49999998  0.33202523  0.62354351  1
  C  C13  1  0.49999998  0.33271848  0.78949852  1
  C  C14  1  0.50000001  0.33063282  0.95602429  1
  C  C15  1  0.50000001  0.41318471  0.12305580  1
  C  C16  1  0.50000001  0.41209228  0.28979333  1
  C  C17  1  0.50000001  0.41465599  0.45709688  1
  C  C18  1  0.49999999  0.41706485  0.62323700  1
  C  C19  1  0.49999998  0.41762630  0.78946595  1
  C  C20  1  0.50000000  0.41530966  0.95651402  1
  C  C21  1  0.50000001  0.45561474  0.04039272  1
  C  C22  1  0.50000000  0.45339205  0.20684764  1
  C  C23  1  0.50000001  0.45361853  0.37281056  1
  C  C24  1  0.50000001  0.45776695  0.53982798  1
  C  C25  1  0.49999999  0.45942966  0.70587965  1
  C  C26  1  0.49999999  0.45737577  0.87357793  1
  C  C27  1  0.50000000  0.54024624  0.04180831  1
  C  C28  1  0.49999999  0.53775219  0.20733847  1
  C  C29  1  0.50000001  0.53756228  0.37212354  1
  C  C30  1  0.50000001  0.54279802  0.53882073  1
  C  C31  1  0.49999999  0.54436057  0.70515707  1
  C  C32  1  0.49999999  0.54166530  0.87417461  1
  C  C33  1  0.49999999  0.57842858  0.12479414  1
  C  C34  1  0.50000000  0.57777779  0.28975288  1
  C  C35  1  0.50000002  0.57854429  0.45426017  1
  C  C36  1  0.49999999  0.58706025  0.62229048  1
  C  C37  1  0.49999999  0.58322861  0.79115069  1
  C  C38  1  0.50000001  0.58299412  0.95780195  1
  C  C39  1  0.49999999  0.67385706  0.62579881  1
  C  C40  1  0.50000000  0.66705670  0.79342838  1
  C  C41  1  0.50000001  0.66638909  0.95703086  1
  H  H42  1  0.50000004  0.79193158  0.58166929  1
  H  H43  1  0.49999998  0.77248683  0.71707327  1
  H  H44  1  0.49999999  0.77130696  0.87756900  1
  H  H45  1  0.50000005  0.22546078  0.03719545  1
  H  H46  1  0.50000004  0.22389171  0.20566647  1
  H  H47  1  0.50000000  0.22477795  0.37578506  1
  H  H48  1  0.50000000  0.22674322  0.54235752  1
  H  H49  1  0.49999993  0.22833435  0.70713806  1
  H  H50  1  0.49999999  0.22785543  0.87054239  1
  H  H51  1  0.49999995  0.72498356  0.48581428  1
  H  H52  1  0.49999998  0.64228688  0.12854802  1
  H  H53  1  0.50000000  0.64190424  0.28977174  1
  H  H54  1  0.50000003  0.64133401  0.44819378  1
  H  H55  1  0.50000003  0.69890209  0.02045050  1
