# generated using pymatgen
data_H7C39
_symmetry_space_group_name_H-M   'P 1'
_cell_length_a   10.00000000
_cell_length_b   25.62946000
_cell_length_c   14.81908340
_cell_angle_alpha   90.00000000
_cell_angle_beta   90.00000000
_cell_angle_gamma   90.00000000
_symmetry_Int_Tables_number   1
_chemical_formula_structural   H7C39
_chemical_formula_sum   'H14 C78'
_cell_volume   3798.05105222
_cell_formula_units_Z   2
loop_
 _symmetry_equiv_pos_site_id
 _symmetry_equiv_pos_as_xyz
  1  'x, y, z'
loop_
 _atom_site_type_symbol
 _atom_site_label
 _atom_site_symmetry_multiplicity
 _atom_site_fract_x
 _atom_site_fract_y
 _atom_site_fract_z
 _atom_site_occupancy
  C  C0  1  0.50000010  0.22033840  0.55755593  1
  C  C1  1  0.50000000  0.23554189  0.71246728  1
  C  C2  1  0.50000002  0.23610167  0.87663360  1
  C  C3  1  0.50000025  0.25862819  0.62494072  1
  C  C4  1  0.50000001  0.26311083  0.79267185  1
  C  C5  1  0.50000002  0.26307519  0.95635760  1
  C  C6  1  0.49999952  0.32139115  0.12492211  1
  C  C7  1  0.49999943  0.32173339  0.29018442  1
  C  C8  1  0.49999992  0.32180934  0.45495633  1
  C  C9  1  0.50000040  0.31650878  0.62235850  1
  C  C10  1  0.50000030  0.31897223  0.79101222  1
  C  C11  1  0.50000011  0.31863646  0.95762531  1
  C  C12  1  0.49999988  0.34705698  0.04187225  1
  C  C13  1  0.49999923  0.34842732  0.20764981  1
  C  C14  1  0.49999950  0.34874523  0.37257098  1
  C  C15  1  0.50000018  0.34608225  0.53932298  1
  C  C16  1  0.50000059  0.34516807  0.70536581  1
  C  C17  1  0.50000041  0.34661742  0.87422311  1
  C  C18  1  0.50000013  0.40328063  0.04073020  1
  C  C19  1  0.49999935  0.40446462  0.20724671  1
  C  C20  1  0.49999943  0.40455427  0.37330254  1
  C  C21  1  0.50000007  0.40254261  0.54046251  1
  C  C22  1  0.50000060  0.40166949  0.70649585  1
  C  C23  1  0.50000067  0.40267135  0.87405123  1
  C  C24  1  0.49999987  0.43147087  0.12373327  1
  C  C25  1  0.49999948  0.43212453  0.29032116  1
  C  C26  1  0.49999976  0.43108625  0.45737677  1
  C  C27  1  0.50000013  0.43005606  0.62374314  1
  C  C28  1  0.50000057  0.42976795  0.79017486  1
  C  C29  1  0.50000047  0.43072012  0.95724089  1
  C  C30  1  0.50000001  0.48732667  0.12382852  1
  C  C31  1  0.49999985  0.48769667  0.29060010  1
  C  C32  1  0.49999981  0.48693785  0.45758115  1
  C  C33  1  0.49999982  0.48618693  0.62401754  1
  C  C34  1  0.49999996  0.48589216  0.79035834  1
  C  C35  1  0.50000009  0.48660174  0.95721088  1
  C  C36  1  0.49999987  0.51472867  0.04044681  1
  C  C37  1  0.49999996  0.51513661  0.20716726  1
  C  C38  1  0.49999986  0.51493234  0.37429538  1
  C  C39  1  0.49999979  0.51438469  0.54104165  1
  C  C40  1  0.49999967  0.51394703  0.70732868  1
  C  C41  1  0.49999971  0.51399769  0.87364752  1
  C  C42  1  0.49999954  0.57054390  0.04071146  1
  C  C43  1  0.49999975  0.57086348  0.20743092  1
  C  C44  1  0.49999989  0.57071622  0.37436046  1
  C  C45  1  0.49999989  0.57029515  0.54108704  1
  C  C46  1  0.49999954  0.56993911  0.70757648  1
  C  C47  1  0.49999929  0.56998921  0.87401291  1
  C  C48  1  0.49999974  0.59839124  0.12409421  1
  C  C49  1  0.49999993  0.59844622  0.29099917  1
  C  C50  1  0.50000003  0.59822148  0.45784222  1
  C  C51  1  0.49999996  0.59790294  0.62445136  1
  C  C52  1  0.49999935  0.59775709  0.79086601  1
  C  C53  1  0.49999939  0.59800452  0.95731354  1
  C  C54  1  0.50000022  0.65428465  0.12440797  1
  C  C55  1  0.50000045  0.65434898  0.29120014  1
  C  C56  1  0.50000032  0.65417072  0.45795908  1
  C  C57  1  0.50000007  0.65390896  0.62457138  1
  C  C58  1  0.49999974  0.65375989  0.79110095  1
  C  C59  1  0.49999972  0.65395687  0.95766118  1
  C  C60  1  0.50000021  0.68171026  0.04102182  1
  C  C61  1  0.50000074  0.68193590  0.20784039  1
  C  C62  1  0.50000064  0.68190233  0.37467723  1
  C  C63  1  0.50000017  0.68170004  0.54138609  1
  C  C64  1  0.49999998  0.68149185  0.70792348  1
  C  C65  1  0.49999985  0.68147719  0.87438037  1
  C  C66  1  0.50000044  0.73811368  0.04116541  1
  C  C67  1  0.50000101  0.73836218  0.20798275  1
  C  C68  1  0.50000072  0.73837463  0.37479690  1
  C  C69  1  0.49999995  0.73817272  0.54150049  1
  C  C70  1  0.49999991  0.73795714  0.70805141  1
  C  C71  1  0.50000006  0.73790716  0.87453654  1
  C  C72  1  0.50000065  0.76480800  0.12448888  1
  C  C73  1  0.50000079  0.76497488  0.29140508  1
  C  C74  1  0.50000021  0.76490413  0.45826178  1
  C  C75  1  0.49999964  0.76469504  0.62489984  1
  C  C76  1  0.50000007  0.76455271  0.79134044  1
  C  C77  1  0.50000017  0.76461558  0.95778667  1
  H  H78  1  0.50000008  0.17967251  0.58074630  1
  H  H79  1  0.49999981  0.19281208  0.71573139  1
  H  H80  1  0.49999993  0.19333194  0.87581395  1
  H  H81  1  0.50000034  0.80759577  0.12425719  1
  H  H82  1  0.50000030  0.80777847  0.29143500  1
  H  H83  1  0.50000004  0.80771456  0.45863414  1
  H  H84  1  0.49999936  0.80749920  0.62535043  1
  H  H85  1  0.50000005  0.80734348  0.79153327  1
  H  H86  1  0.50000006  0.80740728  0.95763019  1
  H  H87  1  0.49999991  0.22412158  0.48460932  1
  H  H88  1  0.49999956  0.27880163  0.12832575  1
  H  H89  1  0.49999964  0.27893273  0.29007772  1
  H  H90  1  0.50000004  0.27992282  0.45005704  1
  H  H91  1  0.50000003  0.24115459  0.01961250  1
