# generated using pymatgen
data_H5C12
_symmetry_space_group_name_H-M   'P 1'
_cell_length_a   10.00000000
_cell_length_b   21.36688000
_cell_length_c   14.93396499
_cell_angle_alpha   90.00000000
_cell_angle_beta   90.00000000
_cell_angle_gamma   90.00000000
_symmetry_Int_Tables_number   1
_chemical_formula_structural   H5C12
_chemical_formula_sum   'H20 C48'
_cell_volume   3190.92237917
_cell_formula_units_Z   4
loop_
 _symmetry_equiv_pos_site_id
 _symmetry_equiv_pos_as_xyz
  1  'x, y, z'
loop_
 _atom_site_type_symbol
 _atom_site_label
 _atom_site_symmetry_multiplicity
 _atom_site_fract_x
 _atom_site_fract_y
 _atom_site_fract_z
 _atom_site_occupancy
  C  C0  1  0.49999850  0.78395101  0.56736758  1
  C  C1  1  0.50000014  0.77258847  0.72855793  1
  C  C2  1  0.50000071  0.76558525  0.89188685  1
  C  C3  1  0.50000195  0.21439135  0.55310720  1
  C  C4  1  0.49999657  0.23345320  0.70542324  1
  C  C5  1  0.49999749  0.23327343  0.86703350  1
  C  C6  1  0.49999905  0.26111351  0.61865372  1
  C  C7  1  0.49999707  0.26659002  0.78445331  1
  C  C8  1  0.49999890  0.26453039  0.94673274  1
  C  C9  1  0.49999988  0.33107223  0.11690884  1
  C  C10  1  0.49999918  0.32996808  0.28320514  1
  C  C11  1  0.49999794  0.33431036  0.44984449  1
  C  C12  1  0.49999927  0.33094486  0.61572498  1
  C  C13  1  0.49999852  0.33374840  0.78294545  1
  C  C14  1  0.49999964  0.33111008  0.94931708  1
  C  C15  1  0.50000025  0.36302605  0.03500124  1
  C  C16  1  0.49999995  0.36203155  0.20075388  1
  C  C17  1  0.49999922  0.36284752  0.36490434  1
  C  C18  1  0.49999938  0.36573195  0.53244711  1
  C  C19  1  0.49999917  0.36591349  0.69756009  1
  C  C20  1  0.49999968  0.36535203  0.86655791  1
  C  C21  1  0.50000081  0.43067096  0.03567420  1
  C  C22  1  0.50000059  0.42999170  0.20072887  1
  C  C23  1  0.49999923  0.42992304  0.36416947  1
  C  C24  1  0.49999943  0.43452737  0.53208165  1
  C  C25  1  0.50000031  0.43497083  0.69788993  1
  C  C26  1  0.50000068  0.43272988  0.86673173  1
  C  C27  1  0.50000114  0.46161617  0.11739094  1
  C  C28  1  0.50000013  0.46232789  0.28223082  1
  C  C29  1  0.49999715  0.46157046  0.44669645  1
  C  C30  1  0.50000082  0.47032068  0.61663451  1
  C  C31  1  0.50000090  0.46703448  0.78417212  1
  C  C32  1  0.50000083  0.46443853  0.95044549  1
  C  C33  1  0.50000238  0.53966780  0.62218147  1
  C  C34  1  0.50000094  0.53418807  0.78820981  1
  C  C35  1  0.50000050  0.52949231  0.95080904  1
  C  C36  1  0.50000518  0.58176065  0.54829573  1
  C  C37  1  0.50000114  0.57061957  0.70777391  1
  C  C38  1  0.50000054  0.56514984  0.87326685  1
  C  C39  1  0.50000269  0.64613098  0.55486579  1
  C  C40  1  0.50000069  0.63844029  0.71493302  1
  C  C41  1  0.50000041  0.63314818  0.88057096  1
  C  C42  1  0.50000030  0.67677744  0.63727214  1
  C  C43  1  0.50000052  0.66875605  0.80096009  1
  C  C44  1  0.50000036  0.66445577  0.96390476  1
  C  C45  1  0.49999948  0.74545981  0.64207532  1
  C  C46  1  0.50000054  0.73628166  0.80662415  1
  C  C47  1  0.50000046  0.72984978  0.96930673  1
  H  H48  1  0.49999785  0.83484712  0.57643835  1
  H  H49  1  0.50000019  0.82375414  0.73465198  1
  H  H50  1  0.50000087  0.81684074  0.89501493  1
  H  H51  1  0.50000066  0.16595121  0.57754637  1
  H  H52  1  0.49999563  0.18221211  0.70916541  1
  H  H53  1  0.49999728  0.18200507  0.86472525  1
  H  H54  1  0.49999861  0.76659496  0.49853375  1
  H  H55  1  0.50000688  0.21738041  0.48060848  1
  H  H56  1  0.49999927  0.27990324  0.11877549  1
  H  H57  1  0.49999853  0.27859896  0.28341853  1
  H  H58  1  0.49999448  0.28397627  0.44919889  1
  H  H59  1  0.50000157  0.51275781  0.12060476  1
  H  H60  1  0.50000068  0.51372398  0.28216585  1
  H  H61  1  0.49999149  0.51123348  0.43709871  1
  H  H62  1  0.50001127  0.56676422  0.47971928  1
  H  H63  1  0.50000392  0.67306508  0.49253729  1
  H  H64  1  0.49999960  0.23771637  0.00899048  1
  H  H65  1  0.50000004  0.55363895  0.01478966  1
  H  H66  1  0.50000034  0.63816052  0.02665158  1
  H  H67  1  0.50000022  0.75257880  0.03508236  1
