# generated using pymatgen
data_H7C57
_symmetry_space_group_name_H-M   'P 1'
_cell_length_a   10.00000000
_cell_length_b   29.89204000
_cell_length_c   14.82319957
_cell_angle_alpha   90.00000000
_cell_angle_beta   90.00000000
_cell_angle_gamma   90.00000000
_symmetry_Int_Tables_number   1
_chemical_formula_structural   H7C57
_chemical_formula_sum   'H14 C114'
_cell_volume   4430.95674583
_cell_formula_units_Z   2
loop_
 _symmetry_equiv_pos_site_id
 _symmetry_equiv_pos_as_xyz
  1  'x, y, z'
loop_
 _atom_site_type_symbol
 _atom_site_label
 _atom_site_symmetry_multiplicity
 _atom_site_fract_x
 _atom_site_fract_y
 _atom_site_fract_z
 _atom_site_occupancy
  C  C0  1  0.50000000  0.84723840  0.55852712  1
  C  C1  1  0.50000001  0.83403268  0.71323805  1
  C  C2  1  0.49999999  0.83341148  0.87720030  1
  C  C3  1  0.50000000  0.16592343  0.04158054  1
  C  C4  1  0.50000000  0.16590218  0.20824663  1
  C  C5  1  0.50000000  0.16588403  0.37493018  1
  C  C6  1  0.50000000  0.16588486  0.54159973  1
  C  C7  1  0.50000000  0.16590462  0.70826740  1
  C  C8  1  0.50000000  0.16592429  0.87491528  1
  C  C9  1  0.50000000  0.18872282  0.12490924  1
  C  C10  1  0.50000000  0.18870380  0.29158495  1
  C  C11  1  0.50000000  0.18870334  0.45825286  1
  C  C12  1  0.50000000  0.18871026  0.62491105  1
  C  C13  1  0.50000000  0.18873216  0.79157217  1
  C  C14  1  0.50000000  0.18873135  0.95823577  1
  C  C15  1  0.50000000  0.23710328  0.12484301  1
  C  C16  1  0.50000000  0.23709461  0.29153094  1
  C  C17  1  0.50000000  0.23709869  0.45819594  1
  C  C18  1  0.50000000  0.23710535  0.62484478  1
  C  C19  1  0.50000000  0.23711622  0.79150682  1
  C  C20  1  0.50000000  0.23710923  0.95816634  1
  C  C21  1  0.50000000  0.26079675  0.04147652  1
  C  C22  1  0.50000000  0.26079172  0.20816133  1
  C  C23  1  0.50000000  0.26080204  0.37484164  1
  C  C24  1  0.50000000  0.26081458  0.54149941  1
  C  C25  1  0.50000000  0.26081212  0.70814822  1
  C  C26  1  0.50000000  0.26080801  0.87481340  1
  C  C27  1  0.50000000  0.30871193  0.04136043  1
  C  C28  1  0.50000000  0.30871266  0.20803882  1
  C  C29  1  0.50000000  0.30873772  0.37474061  1
  C  C30  1  0.50000000  0.30875251  0.54141593  1
  C  C31  1  0.50000000  0.30873888  0.70805857  1
  C  C32  1  0.50000000  0.30872725  0.87470760  1
  C  C33  1  0.50000000  0.33247785  0.12465312  1
  C  C34  1  0.50000000  0.33249379  0.29134403  1
  C  C35  1  0.50000000  0.33252952  0.45804584  1
  C  C36  1  0.50000000  0.33253090  0.62471843  1
  C  C37  1  0.50000000  0.33250807  0.79135455  1
  C  C38  1  0.50000000  0.33249117  0.95799441  1
  C  C39  1  0.50000000  0.38029776  0.12449103  1
  C  C40  1  0.50000000  0.38030862  0.29121012  1
  C  C41  1  0.50000000  0.38035105  0.45793788  1
  C  C42  1  0.50000000  0.38036374  0.62461702  1
  C  C43  1  0.50000000  0.38033796  0.79122038  1
  C  C44  1  0.50000000  0.38031011  0.95782270  1
  C  C45  1  0.50000000  0.40409991  0.04110299  1
  C  C46  1  0.50000000  0.40408894  0.20780366  1
  C  C47  1  0.50000000  0.40411261  0.37452977  1
  C  C48  1  0.50000000  0.40416279  0.54125719  1
  C  C49  1  0.50000000  0.40418097  0.70789057  1
  C  C50  1  0.50000000  0.40414282  0.87447239  1
  C  C51  1  0.50000000  0.45188069  0.04090971  1
  C  C52  1  0.50000000  0.45185537  0.20767992  1
  C  C53  1  0.50000000  0.45188287  0.37445471  1
  C  C54  1  0.50000000  0.45194792  0.54116619  1
  C  C55  1  0.50000000  0.45199041  0.70772897  1
  C  C56  1  0.50000000  0.45195695  0.87426353  1
  C  C57  1  0.49999999  0.47561600  0.12423540  1
  C  C58  1  0.50000000  0.47563163  0.29104950  1
  C  C59  1  0.50000000  0.47569842  0.45778759  1
  C  C60  1  0.50000000  0.47581852  0.62441372  1
  C  C61  1  0.50000000  0.47585651  0.79095320  1
  C  C62  1  0.49999999  0.47575665  0.95752268  1
  C  C63  1  0.49999999  0.52335578  0.12405516  1
  C  C64  1  0.50000000  0.52335996  0.29098763  1
  C  C65  1  0.50000000  0.52345234  0.45777535  1
  C  C66  1  0.50000000  0.52363986  0.62431795  1
  C  C67  1  0.50000000  0.52370556  0.79075767  1
  C  C68  1  0.49999999  0.52355797  0.95729325  1
  C  C69  1  0.49999999  0.54723473  0.04067026  1
  C  C70  1  0.49999999  0.54700731  0.20742853  1
  C  C71  1  0.50000000  0.54712527  0.37439429  1
  C  C72  1  0.50000000  0.54738788  0.54100524  1
  C  C73  1  0.50000000  0.54761625  0.70745703  1
  C  C74  1  0.49999999  0.54754889  0.87397121  1
  C  C75  1  0.49999999  0.59498956  0.04048282  1
  C  C76  1  0.49999999  0.59467979  0.20719637  1
  C  C77  1  0.50000000  0.59486131  0.37433572  1
  C  C78  1  0.50000000  0.59521695  0.54096023  1
  C  C79  1  0.50000000  0.59551836  0.70724960  1
  C  C80  1  0.49999999  0.59546196  0.87369425  1
  C  C81  1  0.49999999  0.61851876  0.12387217  1
  C  C82  1  0.49999999  0.61822238  0.29064559  1
  C  C83  1  0.50000000  0.61884629  0.45760110  1
  C  C84  1  0.50000000  0.61936199  0.62393328  1
  C  C85  1  0.50000000  0.61953640  0.79032797  1
  C  C86  1  0.50000000  0.61902175  0.95723945  1
  C  C87  1  0.50000000  0.66633684  0.12382377  1
  C  C88  1  0.49999999  0.66583856  0.29037135  1
  C  C89  1  0.50000000  0.66672158  0.45741501  1
  C  C90  1  0.50000000  0.66743384  0.62366023  1
  C  C91  1  0.50000000  0.66757072  0.79012206  1
  C  C92  1  0.50000000  0.66683630  0.95730602  1
  C  C93  1  0.50000000  0.69037150  0.04079384  1
  C  C94  1  0.50000000  0.68955066  0.20727386  1
  C  C95  1  0.49999999  0.68949092  0.37336153  1
  C  C96  1  0.50000000  0.69114901  0.54050796  1
  C  C97  1  0.50000000  0.69171619  0.70651141  1
  C  C98  1  0.50000000  0.69074620  0.87405175  1
  C  C99  1  0.50000000  0.73845815  0.04192911  1
  C  C100  1  0.50000000  0.73758271  0.20758158  1
  C  C101  1  0.50000000  0.73734642  0.37268198  1
  C  C102  1  0.50000001  0.73950672  0.53943084  1
  C  C103  1  0.50000000  0.74009621  0.70558765  1
  C  C104  1  0.50000000  0.73869155  0.87434189  1
  C  C105  1  0.50000000  0.76063676  0.12474550  1
  C  C106  1  0.50000000  0.76046156  0.29020485  1
  C  C107  1  0.50000001  0.76044428  0.45514814  1
  C  C108  1  0.50000000  0.76474110  0.62266347  1
  C  C109  1  0.50000000  0.76245612  0.79130795  1
  C  C110  1  0.50000000  0.76264103  0.95770992  1
  C  C111  1  0.50000001  0.81433252  0.62564424  1
  C  C112  1  0.49999999  0.81031207  0.79326642  1
  C  C113  1  0.50000000  0.81018345  0.95666309  1
  H  H114  1  0.50000003  0.88201744  0.58213676  1
  H  H115  1  0.50000002  0.87065969  0.71708090  1
  H  H116  1  0.49999997  0.87009220  0.87659029  1
  H  H117  1  0.50000000  0.12923092  0.04161450  1
  H  H118  1  0.50000000  0.12920566  0.20825330  1
  H  H119  1  0.50000000  0.12918471  0.37498418  1
  H  H120  1  0.50000000  0.12918418  0.54163338  1
  H  H121  1  0.50000000  0.12920479  0.70833206  1
  H  H122  1  0.50000000  0.12922952  0.87493759  1
  H  H123  1  0.49999998  0.84426968  0.48558508  1
  H  H124  1  0.50000000  0.79715431  0.12766234  1
  H  H125  1  0.49999999  0.79714669  0.29018126  1
  H  H126  1  0.50000002  0.79639693  0.45040963  1
  H  H127  1  0.50000000  0.82892798  0.01988837  1
