# generated using pymatgen
data_H11C45
_symmetry_space_group_name_H-M   'P 1'
_cell_length_a   10.00000000
_cell_length_b   29.89204000
_cell_length_c   14.85564064
_cell_angle_alpha   90.00000000
_cell_angle_beta   90.00000000
_cell_angle_gamma   90.00000000
_symmetry_Int_Tables_number   1
_chemical_formula_structural   H11C45
_chemical_formula_sum   'H22 C90'
_cell_volume   4440.65404154
_cell_formula_units_Z   2
loop_
 _symmetry_equiv_pos_site_id
 _symmetry_equiv_pos_as_xyz
  1  'x, y, z'
loop_
 _atom_site_type_symbol
 _atom_site_label
 _atom_site_symmetry_multiplicity
 _atom_site_fract_x
 _atom_site_fract_y
 _atom_site_fract_z
 _atom_site_occupancy
  C  C0  1  0.49999612  0.83524562  0.51678652  1
  C  C1  1  0.49999920  0.83644233  0.67953109  1
  C  C2  1  0.50000245  0.84135751  0.84478904  1
  C  C3  1  0.50000037  0.15149165  0.56706950  1
  C  C4  1  0.50000043  0.16487740  0.72124244  1
  C  C5  1  0.49999972  0.16541706  0.88448467  1
  C  C6  1  0.50000038  0.18449096  0.63383599  1
  C  C7  1  0.50000011  0.18865208  0.80094880  1
  C  C8  1  0.49999945  0.18850808  0.96393260  1
  C  C9  1  0.49999989  0.23786345  0.13211559  1
  C  C10  1  0.50000001  0.23789284  0.29808926  1
  C  C11  1  0.50000008  0.23815522  0.46328973  1
  C  C12  1  0.50000021  0.23410322  0.63069323  1
  C  C13  1  0.50000003  0.23651961  0.79891846  1
  C  C14  1  0.49999971  0.23609694  0.96502864  1
  C  C15  1  0.49999980  0.26015748  0.04923552  1
  C  C16  1  0.49999996  0.26066706  0.21522879  1
  C  C17  1  0.50000001  0.26101547  0.38058847  1
  C  C18  1  0.50000012  0.25915987  0.54743124  1
  C  C19  1  0.50000012  0.25888406  0.71335961  1
  C  C20  1  0.49999989  0.26017644  0.88187618  1
  C  C21  1  0.49999990  0.30827997  0.04782619  1
  C  C22  1  0.49999996  0.30871804  0.21468373  1
  C  C23  1  0.50000001  0.30883924  0.38121466  1
  C  C24  1  0.50000008  0.30758475  0.54853271  1
  C  C25  1  0.50000004  0.30734284  0.71421663  1
  C  C26  1  0.49999995  0.30820738  0.88136876  1
  C  C27  1  0.49999998  0.33197491  0.13098231  1
  C  C28  1  0.50000001  0.33217552  0.29797941  1
  C  C29  1  0.50000005  0.33170345  0.46524392  1
  C  C30  1  0.50000005  0.33156701  0.63149396  1
  C  C31  1  0.50000000  0.33157717  0.79764406  1
  C  C32  1  0.49999998  0.33202774  0.96441889  1
  C  C33  1  0.50000020  0.37978206  0.13059161  1
  C  C34  1  0.50000016  0.37966313  0.29805546  1
  C  C35  1  0.50000004  0.37956732  0.46529186  1
  C  C36  1  0.49999997  0.37976441  0.63182029  1
  C  C37  1  0.50000005  0.37984996  0.79778274  1
  C  C38  1  0.50000017  0.38003785  0.96391826  1
  C  C39  1  0.50000029  0.40364811  0.04714617  1
  C  C40  1  0.50000042  0.40285182  0.21440399  1
  C  C41  1  0.50000015  0.40300728  0.38164320  1
  C  C42  1  0.49999996  0.40347007  0.54848150  1
  C  C43  1  0.49999996  0.40396358  0.71495959  1
  C  C44  1  0.50000027  0.40405910  0.88077567  1
  C  C45  1  0.50000051  0.45155893  0.04702918  1
  C  C46  1  0.50000070  0.45026899  0.21457142  1
  C  C47  1  0.50000020  0.45069458  0.38124058  1
  C  C48  1  0.49999994  0.45137355  0.54827204  1
  C  C49  1  0.49999988  0.45225497  0.71524935  1
  C  C50  1  0.50000047  0.45238539  0.88089861  1
  C  C51  1  0.50000063  0.47368053  0.13160539  1
  C  C52  1  0.50000035  0.47383081  0.29767821  1
  C  C53  1  0.50000008  0.47456691  0.46422741  1
  C  C54  1  0.49999992  0.47552092  0.63153402  1
  C  C55  1  0.49999998  0.47688541  0.79817276  1
  C  C56  1  0.50000059  0.47629054  0.96385827  1
  C  C57  1  0.49999838  0.52120293  0.13259241  1
  C  C58  1  0.50000002  0.52176616  0.29709197  1
  C  C59  1  0.50000016  0.52242615  0.46226337  1
  C  C60  1  0.49999995  0.52349671  0.63096902  1
  C  C61  1  0.50000005  0.52564874  0.79844729  1
  C  C62  1  0.49999885  0.52500998  0.96491731  1
  C  C63  1  0.49999467  0.54430889  0.05051406  1
  C  C64  1  0.49999867  0.54457276  0.21465865  1
  C  C65  1  0.50000021  0.54464334  0.37999646  1
  C  C66  1  0.49999991  0.54655825  0.54706805  1
  C  C67  1  0.49999996  0.54868516  0.71284956  1
  C  C68  1  0.50000024  0.55082148  0.88041153  1
  C  C69  1  0.49999948  0.59299963  0.54606280  1
  C  C70  1  0.49999933  0.59659040  0.70878378  1
  C  C71  1  0.50000207  0.60018596  0.87518304  1
  C  C72  1  0.49999884  0.61881799  0.62353501  1
  C  C73  1  0.49999999  0.62262029  0.78936669  1
  C  C74  1  0.50000662  0.63012552  0.94976796  1
  C  C75  1  0.49999822  0.66731499  0.61609473  1
  C  C76  1  0.50000002  0.67106550  0.78200860  1
  C  C77  1  0.50000396  0.67597301  0.94316373  1
  C  C78  1  0.49999656  0.68960540  0.53220077  1
  C  C79  1  0.49999922  0.69319972  0.69559238  1
  C  C80  1  0.50000092  0.69811681  0.86021809  1
  C  C81  1  0.49999646  0.73580372  0.52649574  1
  C  C82  1  0.49999933  0.74128286  0.68955778  1
  C  C83  1  0.50000156  0.74667584  0.85554121  1
  C  C84  1  0.49999801  0.76281536  0.60392960  1
  C  C85  1  0.50000056  0.76765547  0.77012954  1
  C  C86  1  0.50000372  0.77356001  0.93365424  1
  C  C87  1  0.49999782  0.81200189  0.59757510  1
  C  C88  1  0.50000077  0.81575669  0.76425337  1
  C  C89  1  0.50000427  0.82031015  0.92805174  1
  H  H90  1  0.49999570  0.87192207  0.51783813  1
  H  H91  1  0.49999931  0.87310611  0.67622386  1
  H  H92  1  0.50000243  0.87794213  0.83996424  1
  H  H93  1  0.50000049  0.11669680  0.59062217  1
  H  H94  1  0.50000066  0.12827200  0.72514096  1
  H  H95  1  0.49999954  0.12876371  0.88318057  1
  H  H96  1  0.49999449  0.81911757  0.45074495  1
  H  H97  1  0.50000010  0.15451342  0.49431065  1
  H  H98  1  0.49999993  0.20131467  0.13448678  1
  H  H99  1  0.50000012  0.20118283  0.29870418  1
  H  H100  1  0.50000010  0.20220699  0.45855670  1
  H  H101  1  0.49998535  0.57972843  0.06077770  1
  H  H102  1  0.49999843  0.58129137  0.21432085  1
  H  H103  1  0.50000011  0.58115227  0.37655503  1
  H  H104  1  0.49999978  0.60993254  0.48144366  1
  H  H105  1  0.49999486  0.67069928  0.46925313  1
  H  H106  1  0.49999506  0.75133909  0.45986038  1
  H  H107  1  0.49999909  0.16967348  0.02689653  1
  H  H108  1  0.50001561  0.61939217  0.01867308  1
  H  H109  1  0.50000583  0.69505108  0.00589981  1
  H  H110  1  0.50000516  0.75807386  0.00025753  1
  H  H111  1  0.50000611  0.84017804  -0.00994464  1
