# generated using pymatgen
data_HC3
_symmetry_space_group_name_H-M   'P 1'
_cell_length_a   10.00000000
_cell_length_b   29.89204000
_cell_length_c   14.89658929
_cell_angle_alpha   90.00000000
_cell_angle_beta   90.00000000
_cell_angle_gamma   90.00000000
_symmetry_Int_Tables_number   1
_chemical_formula_structural   HC3
_chemical_formula_sum   'H24 C72'
_cell_volume   4452.89443032
_cell_formula_units_Z   24
loop_
 _symmetry_equiv_pos_site_id
 _symmetry_equiv_pos_as_xyz
  1  'x, y, z'
loop_
 _atom_site_type_symbol
 _atom_site_label
 _atom_site_symmetry_multiplicity
 _atom_site_fract_x
 _atom_site_fract_y
 _atom_site_fract_z
 _atom_site_occupancy
  C  C0  1  0.49999459  0.18982912  0.58072519  1
  C  C1  1  0.49999867  0.19761188  0.74296148  1
  C  C2  1  0.50000432  0.20193526  0.90784359  1
  C  C3  1  0.49999631  0.21709628  0.65600882  1
  C  C4  1  0.50000160  0.22295235  0.82238752  1
  C  C5  1  0.50000806  0.22751401  0.98558401  1
  C  C6  1  0.49999670  0.26623947  0.65099374  1
  C  C7  1  0.50000256  0.27114407  0.81751281  1
  C  C8  1  0.50000847  0.27434805  0.98085466  1
  C  C9  1  0.49999262  0.28864439  0.56797773  1
  C  C10  1  0.50000104  0.29234411  0.73103842  1
  C  C11  1  0.50000522  0.29699670  0.89761664  1
  C  C12  1  0.49999603  0.33485434  0.56292819  1
  C  C13  1  0.50000385  0.34023231  0.72570319  1
  C  C14  1  0.50000448  0.34574695  0.89134484  1
  C  C15  1  0.50000368  0.36168317  0.64087366  1
  C  C16  1  0.50000491  0.36705378  0.80581237  1
  C  C17  1  0.50000276  0.37303987  0.96855659  1
  C  C18  1  0.50000510  0.41013512  0.63580354  1
  C  C19  1  0.50000517  0.41513686  0.79942874  1
  C  C20  1  0.50000207  0.41913649  0.96229148  1
  C  C21  1  0.49998474  0.43215579  0.55290312  1
  C  C22  1  0.50000541  0.43736478  0.71345652  1
  C  C23  1  0.50000373  0.44121452  0.87845663  1
  C  C24  1  0.49996444  0.47797962  0.54601940  1
  C  C25  1  0.50000342  0.48579300  0.70586580  1
  C  C26  1  0.50000369  0.48966117  0.87101388  1
  C  C27  1  0.49999103  0.50806395  0.62016010  1
  C  C28  1  0.50000429  0.51190789  0.78606876  1
  C  C29  1  0.50000081  0.51540577  0.94826578  1
  C  C30  1  0.49999921  0.56338131  0.11406035  1
  C  C31  1  0.50000952  0.56300496  0.27978050  1
  C  C32  1  0.50003458  0.56337284  0.44381461  1
  C  C33  1  0.50000021  0.55741127  0.61445170  1
  C  C34  1  0.50000070  0.55982858  0.78206958  1
  C  C35  1  0.49999991  0.56187224  0.94735475  1
  C  C36  1  0.49999893  0.58582447  0.03222422  1
  C  C37  1  0.50000038  0.58574444  0.19751150  1
  C  C38  1  0.50001095  0.58643990  0.36168795  1
  C  C39  1  0.50000787  0.58270730  0.52932354  1
  C  C40  1  0.50000038  0.58267005  0.69631830  1
  C  C41  1  0.50000002  0.58499341  0.86383935  1
  C  C42  1  0.49999909  0.63382620  0.03057752  1
  C  C43  1  0.49999762  0.63375624  0.19721607  1
  C  C44  1  0.49999572  0.63411710  0.36255896  1
  C  C45  1  0.49999553  0.63144573  0.53017369  1
  C  C46  1  0.49999988  0.63159815  0.69675982  1
  C  C47  1  0.50000000  0.63316518  0.86352413  1
  C  C48  1  0.49999833  0.65693265  0.11414227  1
  C  C49  1  0.49999503  0.65746725  0.27970165  1
  C  C50  1  0.49999571  0.65610193  0.44717288  1
  C  C51  1  0.49999618  0.65515919  0.61333623  1
  C  C52  1  0.50000020  0.65648504  0.78018761  1
  C  C53  1  0.49999975  0.65728081  0.94661209  1
  C  C54  1  0.49999921  0.70489195  0.11436247  1
  C  C55  1  0.49999639  0.70547723  0.27955494  1
  C  C56  1  0.49999712  0.70433878  0.44597431  1
  C  C57  1  0.49999736  0.70352193  0.61295111  1
  C  C58  1  0.49999967  0.70522719  0.78096603  1
  C  C59  1  0.50000023  0.70576501  0.94725120  1
  C  C60  1  0.50000079  0.72715099  0.03109354  1
  C  C61  1  0.49999895  0.72822763  0.19675117  1
  C  C62  1  0.49999766  0.72723268  0.36370123  1
  C  C63  1  0.49999834  0.72787336  0.53026255  1
  C  C64  1  0.49999919  0.72744071  0.69546091  1
  C  C65  1  0.49999990  0.73028287  0.86332915  1
  C  C66  1  0.50000040  0.77547580  0.53101930  1
  C  C67  1  0.50000009  0.77541073  0.69302231  1
  C  C68  1  0.49999940  0.77991035  0.85943340  1
  C  C69  1  0.50000075  0.79872791  0.60975542  1
  C  C70  1  0.49999987  0.79938369  0.77209180  1
  C  C71  1  0.49999855  0.81314189  0.92542255  1
  H  H72  1  0.49999449  0.15337984  0.58856458  1
  H  H73  1  0.49999863  0.16100608  0.74816556  1
  H  H74  1  0.50000365  0.16528638  0.91105886  1
  H  H75  1  0.50000154  0.83537932  0.61035378  1
  H  H76  1  0.49999964  0.83599718  0.76756165  1
  H  H77  1  0.49999855  0.84776257  0.90107676  1
  H  H78  1  0.49999373  0.20284126  0.51212667  1
  H  H79  1  0.49998661  0.26944283  0.50546635  1
  H  H80  1  0.49999175  0.35034289  0.49651841  1
  H  H81  1  0.49997377  0.41311021  0.49033624  1
  H  H82  1  0.49990680  0.48855588  0.47721230  1
  H  H83  1  0.50000032  0.52686450  0.11676738  1
  H  H84  1  0.50001201  0.52628893  0.28071766  1
  H  H85  1  0.50009441  0.52792247  0.43339670  1
  H  H86  1  0.50000255  0.76313268  0.03494608  1
  H  H87  1  0.50000113  0.76495095  0.19609226  1
  H  H88  1  0.49999937  0.76378119  0.36253580  1
  H  H89  1  0.50000151  0.79399996  0.46788563  1
  H  H90  1  0.50001024  0.21105557  0.05135986  1
  H  H91  1  0.50001144  0.29326208  0.04366256  1
  H  H92  1  0.50000145  0.35796806  0.03543728  1
  H  H93  1  0.50000018  0.43821825  0.02486293  1
  H  H94  1  0.49999932  0.49838259  0.01261007  1
  H  H95  1  0.49999756  0.81056534  -0.00197530  1
