# generated using pymatgen
data_H11C27
_symmetry_space_group_name_H-M   'P 1'
_cell_length_a   10.00000000
_cell_length_b   25.62946000
_cell_length_c   14.82407033
_cell_angle_alpha   90.00000000
_cell_angle_beta   90.00000000
_cell_angle_gamma   90.00000000
_symmetry_Int_Tables_number   1
_chemical_formula_structural   H11C27
_chemical_formula_sum   'H22 C54'
_cell_volume   3799.32917678
_cell_formula_units_Z   2
loop_
 _symmetry_equiv_pos_site_id
 _symmetry_equiv_pos_as_xyz
  1  'x, y, z'
loop_
 _atom_site_type_symbol
 _atom_site_label
 _atom_site_symmetry_multiplicity
 _atom_site_fract_x
 _atom_site_fract_y
 _atom_site_fract_z
 _atom_site_occupancy
  C  C0  1  0.49999509  0.22145676  0.57685666  1
  C  C1  1  0.49999591  0.23072175  0.73992692  1
  C  C2  1  0.50000104  0.23625813  0.90565345  1
  C  C3  1  0.49999528  0.25332593  0.65239448  1
  C  C4  1  0.49999914  0.26049311  0.81952523  1
  C  C5  1  0.50000471  0.26628364  0.98358602  1
  C  C6  1  0.49999571  0.31066357  0.64705318  1
  C  C7  1  0.50000105  0.31670194  0.81421104  1
  C  C8  1  0.50000608  0.32088520  0.97838945  1
  C  C9  1  0.49999183  0.33665125  0.56352985  1
  C  C10  1  0.49999934  0.34134063  0.72718536  1
  C  C11  1  0.50000409  0.34702593  0.89449135  1
  C  C12  1  0.49999352  0.39053413  0.55782422  1
  C  C13  1  0.50000093  0.39724121  0.72129409  1
  C  C14  1  0.50000467  0.40385486  0.88777126  1
  C  C15  1  0.49999921  0.42208019  0.63582443  1
  C  C16  1  0.50000324  0.42862334  0.80176915  1
  C  C17  1  0.50000621  0.43558390  0.96538774  1
  C  C18  1  0.50000087  0.47868764  0.63025671  1
  C  C19  1  0.50000313  0.48472223  0.79535027  1
  C  C20  1  0.50000609  0.48933612  0.95920463  1
  C  C21  1  0.49999821  0.50434550  0.54663621  1
  C  C22  1  0.50000182  0.51032553  0.70854054  1
  C  C23  1  0.50000416  0.51513548  0.87510911  1
  C  C24  1  0.49999454  0.55791435  0.53961319  1
  C  C25  1  0.50000134  0.56671043  0.70105380  1
  C  C26  1  0.50000312  0.57179420  0.86820658  1
  C  C27  1  0.49999827  0.59248577  0.61451360  1
  C  C28  1  0.50000221  0.59698721  0.78211135  1
  C  C29  1  0.50000223  0.60239249  0.94575447  1
  C  C30  1  0.49999875  0.66295412  0.11053273  1
  C  C31  1  0.49999925  0.66408047  0.27381103  1
  C  C32  1  0.50000146  0.66046243  0.43656629  1
  C  C33  1  0.49999890  0.65002805  0.60849893  1
  C  C34  1  0.50000114  0.65268850  0.77744964  1
  C  C35  1  0.50000158  0.65695147  0.94371378  1
  C  C36  1  0.50000079  0.68701918  0.02735417  1
  C  C37  1  0.49999936  0.69108491  0.19228733  1
  C  C38  1  0.49999985  0.69011611  0.35657021  1
  C  C39  1  0.49999908  0.68061595  0.52358480  1
  C  C40  1  0.49999985  0.67842164  0.69080586  1
  C  C41  1  0.50000150  0.68245137  0.85908053  1
  C  C42  1  0.50000240  0.74382348  0.02442326  1
  C  C43  1  0.50000101  0.74784456  0.19175909  1
  C  C44  1  0.49999922  0.74647957  0.35875049  1
  C  C45  1  0.49999786  0.73801838  0.52596487  1
  C  C46  1  0.49999914  0.73545348  0.69124047  1
  C  C47  1  0.50000134  0.73901605  0.85749719  1
  C  C48  1  0.50000272  0.77248453  0.10616461  1
  C  C49  1  0.50000050  0.77414024  0.27590734  1
  C  C50  1  0.49999841  0.76846609  0.44593738  1
  C  C51  1  0.49999773  0.76321716  0.60988279  1
  C  C52  1  0.49999976  0.76347311  0.77300465  1
  C  C53  1  0.50000268  0.76781993  0.93862090  1
  H  H54  1  0.49999501  0.17898226  0.58502871  1
  H  H55  1  0.49999448  0.18801291  0.74546206  1
  H  H56  1  0.49999992  0.19353063  0.90924831  1
  H  H57  1  0.50000418  0.81528413  0.10266850  1
  H  H58  1  0.50000116  0.81695817  0.27692598  1
  H  H59  1  0.49999857  0.81108888  0.45339703  1
  H  H60  1  0.49999713  0.80601266  0.61228358  1
  H  H61  1  0.49999858  0.80620668  0.76969551  1
  H  H62  1  0.50000354  0.81057477  0.93422688  1
  H  H63  1  0.49999567  0.23651791  0.50785200  1
  H  H64  1  0.49998658  0.31412833  0.50093409  1
  H  H65  1  0.49998930  0.40841235  0.49092480  1
  H  H66  1  0.49999794  0.48196380  0.48389368  1
  H  H67  1  0.49998596  0.57167747  0.47095310  1
  H  H68  1  0.49999657  0.62040525  0.11657944  1
  H  H69  1  0.49999895  0.62126392  0.27266255  1
  H  H70  1  0.50000646  0.61926058  0.42237732  1
  H  H71  1  0.50000670  0.24720835  0.04980415  1
  H  H72  1  0.50000871  0.34307041  0.04139452  1
  H  H73  1  0.50000753  0.41782435  0.03242300  1
  H  H74  1  0.50000789  0.51165444  0.02201678  1
  H  H75  1  0.50000189  0.58281220  0.01081534  1
