# generated using pymatgen
data_H7C51
_symmetry_space_group_name_H-M   'P 1'
_cell_length_a   10.00000000
_cell_length_b   29.89204000
_cell_length_c   14.82335620
_cell_angle_alpha   90.00000000
_cell_angle_beta   90.00000000
_cell_angle_gamma   90.00000000
_symmetry_Int_Tables_number   1
_chemical_formula_structural   H7C51
_chemical_formula_sum   'H14 C102'
_cell_volume   4431.00356428
_cell_formula_units_Z   2
loop_
 _symmetry_equiv_pos_site_id
 _symmetry_equiv_pos_as_xyz
  1  'x, y, z'
loop_
 _atom_site_type_symbol
 _atom_site_label
 _atom_site_symmetry_multiplicity
 _atom_site_fract_x
 _atom_site_fract_y
 _atom_site_fract_z
 _atom_site_occupancy
  C  C0  1  0.50000000  0.18845996  0.55864261  1
  C  C1  1  0.50000001  0.20165686  0.71336669  1
  C  C2  1  0.49999999  0.20231570  0.87728899  1
  C  C3  1  0.50000001  0.22134450  0.62576812  1
  C  C4  1  0.50000000  0.22540270  0.79336084  1
  C  C5  1  0.50000000  0.22551884  0.95679033  1
  C  C6  1  0.50000000  0.27513252  0.12483560  1
  C  C7  1  0.49999999  0.27530133  0.29029797  1
  C  C8  1  0.50000001  0.27536886  0.45513253  1
  C  C9  1  0.50000001  0.27093657  0.62269736  1
  C  C10  1  0.50000000  0.27326223  0.79130125  1
  C  C11  1  0.50000001  0.27309988  0.95776213  1
  C  C12  1  0.50000001  0.29729750  0.04195419  1
  C  C13  1  0.49999999  0.29818089  0.20768252  1
  C  C14  1  0.50000000  0.29847556  0.37270299  1
  C  C15  1  0.50000001  0.29619324  0.53952078  1
  C  C16  1  0.50000000  0.29560390  0.70558157  1
  C  C17  1  0.50000000  0.29702478  0.87433722  1
  C  C18  1  0.50000000  0.34540457  0.04078041  1
  C  C19  1  0.49999999  0.34622351  0.20732430  1
  C  C20  1  0.49999999  0.34631675  0.37337806  1
  C  C21  1  0.50000000  0.34460753  0.54054242  1
  C  C22  1  0.50000000  0.34400636  0.70655796  1
  C  C23  1  0.50000000  0.34500471  0.87407040  1
  C  C24  1  0.50000000  0.36946380  0.12386868  1
  C  C25  1  0.49999999  0.36995340  0.29039598  1
  C  C26  1  0.49999999  0.36909276  0.45742296  1
  C  C27  1  0.50000000  0.36829615  0.62372319  1
  C  C28  1  0.50000000  0.36817748  0.79013786  1
  C  C29  1  0.50000000  0.36896306  0.95728377  1
  C  C30  1  0.50000000  0.41728857  0.12388045  1
  C  C31  1  0.49999999  0.41758035  0.29063950  1
  C  C32  1  0.49999999  0.41695878  0.45759613  1
  C  C33  1  0.50000000  0.41639809  0.62397607  1
  C  C34  1  0.50000000  0.41623345  0.79029481  1
  C  C35  1  0.50000000  0.41679099  0.95719724  1
  C  C36  1  0.50000000  0.44082909  0.04047246  1
  C  C37  1  0.50000000  0.44113655  0.20719402  1
  C  C38  1  0.50000000  0.44094806  0.37432004  1
  C  C39  1  0.50000000  0.44056249  0.54099309  1
  C  C40  1  0.50000000  0.44027835  0.70724961  1
  C  C41  1  0.50000000  0.44032563  0.87363878  1
  C  C42  1  0.50000000  0.48860856  0.04064324  1
  C  C43  1  0.50000000  0.48884385  0.20739678  1
  C  C44  1  0.50000000  0.48871842  0.37435665  1
  C  C45  1  0.50000000  0.48843745  0.54104743  1
  C  C46  1  0.50000000  0.48821475  0.70750662  1
  C  C47  1  0.50000000  0.48826350  0.87396037  1
  C  C48  1  0.50000000  0.51249439  0.12401049  1
  C  C49  1  0.50000000  0.51251061  0.29095737  1
  C  C50  1  0.50000000  0.51238304  0.45778975  1
  C  C51  1  0.50000000  0.51219993  0.62436541  1
  C  C52  1  0.50000000  0.51212048  0.79079178  1
  C  C53  1  0.50000000  0.51226579  0.95726390  1
  C  C54  1  0.50000000  0.56026900  0.12421836  1
  C  C55  1  0.50000000  0.56028076  0.29105416  1
  C  C56  1  0.50000000  0.56019333  0.45781666  1
  C  C57  1  0.50000000  0.56006916  0.62443447  1
  C  C58  1  0.50000000  0.55999949  0.79095379  1
  C  C59  1  0.50000000  0.56009887  0.95750293  1
  C  C60  1  0.50000000  0.58398502  0.04087640  1
  C  C61  1  0.50000000  0.58404287  0.20767050  1
  C  C62  1  0.50000000  0.58402509  0.37448298  1
  C  C63  1  0.50000000  0.58395399  0.54118640  1
  C  C64  1  0.50000000  0.58388090  0.70774110  1
  C  C65  1  0.50000000  0.58388821  0.87424254  1
  C  C66  1  0.50000000  0.63182379  0.04106815  1
  C  C67  1  0.50000000  0.63186142  0.20781329  1
  C  C68  1  0.50000000  0.63185804  0.37454275  1
  C  C69  1  0.50000000  0.63180704  0.54121352  1
  C  C70  1  0.50000000  0.63175325  0.70782243  1
  C  C71  1  0.50000000  0.63176064  0.87440912  1
  C  C72  1  0.50000000  0.65560738  0.12447308  1
  C  C73  1  0.50000000  0.65562619  0.29121293  1
  C  C74  1  0.50000000  0.65561020  0.45791083  1
  C  C75  1  0.50000000  0.65557035  0.62455587  1
  C  C76  1  0.50000000  0.65555284  0.79115254  1
  C  C77  1  0.50000000  0.65558045  0.95775976  1
  C  C78  1  0.50000000  0.70354320  0.12460248  1
  C  C79  1  0.50000000  0.70355311  0.29130196  1
  C  C80  1  0.50000000  0.70354018  0.45797995  1
  C  C81  1  0.50000000  0.70351424  0.62463340  1
  C  C82  1  0.50000000  0.70350139  0.79126541  1
  C  C83  1  0.50000000  0.70352359  0.95790906  1
  C  C84  1  0.50000000  0.72722958  0.04128570  1
  C  C85  1  0.50000000  0.72724514  0.20797636  1
  C  C86  1  0.50000000  0.72724711  0.37466778  1
  C  C87  1  0.50000000  0.72722721  0.54134049  1
  C  C88  1  0.50000000  0.72721048  0.70797777  1
  C  C89  1  0.50000000  0.72721479  0.87460786  1
  C  C90  1  0.50000000  0.77562362  0.04137577  1
  C  C91  1  0.50000000  0.77563910  0.20805588  1
  C  C92  1  0.50000000  0.77564239  0.37473866  1
  C  C93  1  0.50000000  0.77561778  0.54141159  1
  C  C94  1  0.50000000  0.77560347  0.70806206  1
  C  C95  1  0.50000000  0.77560709  0.87470619  1
  C  C96  1  0.50000000  0.79844471  0.12472503  1
  C  C97  1  0.50000000  0.79845465  0.29141254  1
  C  C98  1  0.50000000  0.79844014  0.45810522  1
  C  C99  1  0.50000000  0.79842174  0.62476051  1
  C  C100  1  0.50000000  0.79841668  0.79140224  1
  C  C101  1  0.50000000  0.79842712  0.95804931  1
  H  H102  1  0.50000004  0.15366511  0.58215327  1
  H  H103  1  0.50000002  0.16504219  0.71736170  1
  H  H104  1  0.49999997  0.16565592  0.87685572  1
  H  H105  1  0.50000000  0.83514549  0.12475026  1
  H  H106  1  0.50000000  0.83515538  0.29145884  1
  H  H107  1  0.50000000  0.83513801  0.45823211  1
  H  H108  1  0.50000000  0.83511932  0.62485095  1
  H  H109  1  0.50000000  0.83511291  0.79150132  1
  H  H110  1  0.50000000  0.83512678  0.95807092  1
  H  H111  1  0.49999999  0.19159832  0.48575126  1
  H  H112  1  0.50000000  0.23861131  0.12784802  1
  H  H113  1  0.49999999  0.23860167  0.29057085  1
  H  H114  1  0.50000003  0.23944683  0.45003161  1
  H  H115  1  0.50000000  0.20680896  0.02004375  1
