# generated using pymatgen
data_HC3
_symmetry_space_group_name_H-M   'P 1'
_cell_length_a   10.00000000
_cell_length_b   25.62946000
_cell_length_c   14.90958200
_cell_angle_alpha   90.00000000
_cell_angle_beta   90.00000000
_cell_angle_gamma   90.00000000
_symmetry_Int_Tables_number   1
_chemical_formula_structural   HC3
_chemical_formula_sum   'H20 C60'
_cell_volume   3821.24535468
_cell_formula_units_Z   20
loop_
 _symmetry_equiv_pos_site_id
 _symmetry_equiv_pos_as_xyz
  1  'x, y, z'
loop_
 _atom_site_type_symbol
 _atom_site_label
 _atom_site_symmetry_multiplicity
 _atom_site_fract_x
 _atom_site_fract_y
 _atom_site_fract_z
 _atom_site_occupancy
  C  C0  1  0.49999947  0.23470790  0.52994954  1
  C  C1  1  0.49999923  0.23437386  0.69158708  1
  C  C2  1  0.49999941  0.22705721  0.85234301  1
  C  C3  1  0.49999911  0.26209219  0.60999946  1
  C  C4  1  0.49999921  0.25904523  0.77522209  1
  C  C5  1  0.50000022  0.25070718  0.93514786  1
  C  C6  1  0.49999902  0.31933750  0.61759444  1
  C  C7  1  0.49999921  0.31567507  0.78309830  1
  C  C8  1  0.50000066  0.30506049  0.94267228  1
  C  C9  1  0.49999942  0.34908429  0.54065677  1
  C  C10  1  0.49999920  0.34552420  0.70258700  1
  C  C11  1  0.49999986  0.34071453  0.86924846  1
  C  C12  1  0.49999936  0.40504252  0.04400254  1
  C  C13  1  0.49999960  0.40378874  0.20850125  1
  C  C14  1  0.49999978  0.40457016  0.37484283  1
  C  C15  1  0.49999984  0.40351172  0.54138227  1
  C  C16  1  0.49999968  0.40148999  0.70628206  1
  C  C17  1  0.49999978  0.39860736  0.87412628  1
  C  C18  1  0.49999976  0.43127388  0.12665343  1
  C  C19  1  0.49999974  0.43020922  0.29097433  1
  C  C20  1  0.49999988  0.43108749  0.45658042  1
  C  C21  1  0.49999994  0.43086336  0.62462058  1
  C  C22  1  0.49999981  0.42803468  0.79211154  1
  C  C23  1  0.49999974  0.42809025  0.95885574  1
  C  C24  1  0.50000009  0.48684865  0.12595253  1
  C  C25  1  0.49999991  0.48611197  0.29121800  1
  C  C26  1  0.49999993  0.48708592  0.45826593  1
  C  C27  1  0.50000006  0.48727725  0.62514650  1
  C  C28  1  0.49999996  0.48528589  0.79158723  1
  C  C29  1  0.49999997  0.48485169  0.95808054  1
  C  C30  1  0.50000009  0.51291894  0.04173750  1
  C  C31  1  0.50000012  0.51387058  0.20878384  1
  C  C32  1  0.49999992  0.51312502  0.37405569  1
  C  C33  1  0.50000005  0.51515730  0.54191151  1
  C  C34  1  0.50000006  0.51472387  0.70841073  1
  C  C35  1  0.49999997  0.51273456  0.87486669  1
  C  C36  1  0.50000014  0.56889015  0.04342123  1
  C  C37  1  0.50000027  0.56978644  0.20899196  1
  C  C38  1  0.50000022  0.56870219  0.37332522  1
  C  C39  1  0.50000024  0.57191349  0.54114669  1
  C  C40  1  0.50000021  0.57195852  0.70789090  1
  C  C41  1  0.50000009  0.56914062  0.87535633  1
  C  C42  1  0.50000024  0.59542789  0.12515678  1
  C  C43  1  0.50000038  0.59619886  0.29147949  1
  C  C44  1  0.50000056  0.59495007  0.45598045  1
  C  C45  1  0.50000022  0.60139658  0.62588090  1
  C  C46  1  0.50000033  0.59851258  0.79369705  1
  C  C47  1  0.50000019  0.59648947  0.95861072  1
  C  C48  1  0.50000013  0.65928479  0.63075133  1
  C  C49  1  0.50000080  0.65448738  0.79740200  1
  C  C50  1  0.50000061  0.65091946  0.95934877  1
  C  C51  1  0.49999936  0.69494380  0.55733792  1
  C  C52  1  0.50000077  0.68433347  0.71690305  1
  C  C53  1  0.50000099  0.68067591  0.88241749  1
  C  C54  1  0.49999978  0.74929727  0.56485919  1
  C  C55  1  0.50000076  0.74095324  0.72476488  1
  C  C56  1  0.50000090  0.73792854  0.88999893  1
  C  C57  1  0.50000055  0.77294514  0.64765845  1
  C  C58  1  0.50000074  0.76563167  0.80840105  1
  C  C59  1  0.50000055  0.76529988  0.97007516  1
  H  H60  1  0.50000021  0.19195438  0.53185212  1
  H  H61  1  0.49999932  0.19157340  0.69003283  1
  H  H62  1  0.49999952  0.18457205  0.84458949  1
  H  H63  1  0.50000043  0.81542934  0.65541332  1
  H  H64  1  0.50000066  0.80842203  0.80999024  1
  H  H65  1  0.49999981  0.80804844  0.96816569  1
  H  H66  1  0.49999965  0.25289405  0.46366224  1
  H  H67  1  0.49999956  0.32860357  0.47680156  1
  H  H68  1  0.49999824  0.36364119  0.05294195  1
  H  H69  1  0.49999928  0.36096256  0.20767970  1
  H  H70  1  0.49999987  0.36195895  0.37305962  1
  H  H71  1  0.50000014  0.63804112  0.12691153  1
  H  H72  1  0.50000067  0.63902918  0.29231173  1
  H  H73  1  0.50000154  0.63635732  0.44703402  1
  H  H74  1  0.49999790  0.68300296  0.48833973  1
  H  H75  1  0.49999930  0.77249605  0.50311392  1
  H  H76  1  0.50000070  0.22750257  -0.00309816  1
  H  H77  1  0.50000223  0.31698884  0.01169103  1
  H  H78  1  0.50000047  0.67140139  0.02323016  1
  H  H79  1  0.50000038  0.74711255  0.03636513  1
