# generated using pymatgen
data_HC3
_symmetry_space_group_name_H-M   'P 1'
_cell_length_a   10.00000000
_cell_length_b   29.89204000
_cell_length_c   14.89294893
_cell_angle_alpha   90.00000000
_cell_angle_beta   90.00000000
_cell_angle_gamma   90.00000000
_symmetry_Int_Tables_number   1
_chemical_formula_structural   HC3
_chemical_formula_sum   'H24 C72'
_cell_volume   4451.80625116
_cell_formula_units_Z   24
loop_
 _symmetry_equiv_pos_site_id
 _symmetry_equiv_pos_as_xyz
  1  'x, y, z'
loop_
 _atom_site_type_symbol
 _atom_site_label
 _atom_site_symmetry_multiplicity
 _atom_site_fract_x
 _atom_site_fract_y
 _atom_site_fract_z
 _atom_site_occupancy
  C  C0  1  0.50000139  0.18684702  0.57460514  1
  C  C1  1  0.50000032  0.20064473  0.72798105  1
  C  C2  1  0.49999930  0.20122529  0.89041175  1
  C  C3  1  0.50000067  0.22007558  0.64061931  1
  C  C4  1  0.49999999  0.22455633  0.80711795  1
  C  C5  1  0.49999946  0.22447453  0.96916324  1
  C  C6  1  0.50000185  0.27275718  0.13637493  1
  C  C7  1  0.50000078  0.27179980  0.30323145  1
  C  C8  1  0.49999926  0.27280527  0.46873816  1
  C  C9  1  0.50000017  0.26969765  0.63663773  1
  C  C10  1  0.50000064  0.27250816  0.80458474  1
  C  C11  1  0.50000120  0.27209116  0.96984056  1
  C  C12  1  0.50000223  0.29563409  0.05411166  1
  C  C13  1  0.50000289  0.29455167  0.22044583  1
  C  C14  1  0.50000058  0.29514122  0.38555104  1
  C  C15  1  0.49999981  0.29416839  0.55261265  1
  C  C16  1  0.50000028  0.29474053  0.71906712  1
  C  C17  1  0.50000205  0.29643400  0.88710255  1
  C  C18  1  0.50000351  0.34385788  0.05297113  1
  C  C19  1  0.50000411  0.34255171  0.22023511  1
  C  C20  1  0.50000136  0.34308872  0.38590183  1
  C  C21  1  0.50000020  0.34266181  0.55319633  1
  C  C22  1  0.49999978  0.34349446  0.71982073  1
  C  C23  1  0.50000301  0.34478611  0.88670144  1
  C  C24  1  0.50000368  0.36590613  0.13744084  1
  C  C25  1  0.50000202  0.36624917  0.30276055  1
  C  C26  1  0.50000072  0.36620219  0.46935429  1
  C  C27  1  0.49999997  0.36677381  0.63637942  1
  C  C28  1  0.49999998  0.36836397  0.80327651  1
  C  C29  1  0.50000369  0.36849193  0.96988583  1
  C  C30  1  0.49999137  0.41358422  0.13822666  1
  C  C31  1  0.49999986  0.41425277  0.30241746  1
  C  C32  1  0.50000084  0.41420200  0.46766784  1
  C  C33  1  0.49999994  0.41495129  0.63602080  1
  C  C34  1  0.49999960  0.41729338  0.80357973  1
  C  C35  1  0.49999375  0.41723471  0.97060573  1
  C  C36  1  0.49997193  0.43663035  0.05605420  1
  C  C37  1  0.49999257  0.43701012  0.22015081  1
  C  C38  1  0.50000073  0.43665044  0.38582032  1
  C  C39  1  0.50000006  0.43814042  0.55254677  1
  C  C40  1  0.49999936  0.44013993  0.71783171  1
  C  C41  1  0.49999983  0.44254945  0.88543803  1
  C  C42  1  0.49999939  0.48461702  0.55170334  1
  C  C43  1  0.49999642  0.48807456  0.71386076  1
  C  C44  1  0.50000726  0.49190539  0.87981785  1
  C  C45  1  0.49999703  0.51039409  0.62894454  1
  C  C46  1  0.49999700  0.51418281  0.79408756  1
  C  C47  1  0.50002912  0.52199384  0.95394995  1
  C  C48  1  0.49999693  0.55886320  0.62145635  1
  C  C49  1  0.49999541  0.56261262  0.78641876  1
  C  C50  1  0.50001213  0.56779973  0.94692893  1
  C  C51  1  0.49999815  0.58095660  0.53760601  1
  C  C52  1  0.49999565  0.58491872  0.70049990  1
  C  C53  1  0.49999561  0.58981891  0.86408396  1
  C  C54  1  0.49999717  0.62705923  0.53130576  1
  C  C55  1  0.49999553  0.63297336  0.69409915  1
  C  C56  1  0.49999726  0.63825370  0.85913237  1
  C  C57  1  0.49999553  0.65432004  0.60856374  1
  C  C58  1  0.49999670  0.65970963  0.77426737  1
  C  C59  1  0.50000479  0.66503603  0.93714028  1
  C  C60  1  0.49999457  0.70307273  0.60230036  1
  C  C61  1  0.49999914  0.70760422  0.76896819  1
  C  C62  1  0.50000779  0.71123849  0.93205186  1
  C  C63  1  0.49999114  0.72580916  0.51910415  1
  C  C64  1  0.49999735  0.72885446  0.68252437  1
  C  C65  1  0.50000336  0.73366383  0.84907133  1
  C  C66  1  0.49999176  0.77266560  0.51462362  1
  C  C67  1  0.49999809  0.77704176  0.67785753  1
  C  C68  1  0.50000370  0.78279023  0.84424615  1
  C  C69  1  0.49999546  0.79815202  0.59250633  1
  C  C70  1  0.50000110  0.80231660  0.75734062  1
  C  C71  1  0.50000576  0.81007792  0.91948269  1
  H  H72  1  0.50000141  0.15218561  0.59882362  1
  H  H73  1  0.50000067  0.16406298  0.73259061  1
  H  H74  1  0.49999858  0.16455706  0.88965862  1
  H  H75  1  0.49999629  0.83480294  0.58960561  1
  H  H76  1  0.50000122  0.83892194  0.75219265  1
  H  H77  1  0.50000566  0.84650232  0.91130586  1
  H  H78  1  0.50000208  0.18961192  0.50201796  1
  H  H79  1  0.50000055  0.23621411  0.13753798  1
  H  H80  1  0.49999897  0.23506857  0.30369530  1
  H  H81  1  0.49999771  0.23683501  0.46464042  1
  H  H82  1  0.49992253  0.47210178  0.06625730  1
  H  H83  1  0.49999066  0.47372464  0.21940250  1
  H  H84  1  0.49999987  0.47317371  0.38310520  1
  H  H85  1  0.50000053  0.50161710  0.48728695  1
  H  H86  1  0.50000005  0.56184533  0.47507675  1
  H  H87  1  0.49999832  0.64215936  0.46442748  1
  H  H88  1  0.49998819  0.70697280  0.45614859  1
  H  H89  1  0.49998964  0.78924842  0.44896296  1
  H  H90  1  0.49999841  0.20598777  0.03237292  1
  H  H91  1  0.50007716  0.51163355  0.02289017  1
  H  H92  1  0.50002072  0.58690790  0.00940167  1
  H  H93  1  0.50000930  0.64948466  0.00353907  1
  H  H94  1  0.50001372  0.73046187  -0.00550070  1
  H  H95  1  0.50000670  0.79713758  -0.01186424  1
