# generated using pymatgen
data_HC3
_symmetry_space_group_name_H-M   'P 1'
_cell_length_a   10.00000000
_cell_length_b   25.62946000
_cell_length_c   14.84159365
_cell_angle_alpha   90.00000000
_cell_angle_beta   90.00000000
_cell_angle_gamma   90.00000000
_symmetry_Int_Tables_number   1
_chemical_formula_structural   HC3
_chemical_formula_sum   'H22 C66'
_cell_volume   3803.82030770
_cell_formula_units_Z   22
loop_
 _symmetry_equiv_pos_site_id
 _symmetry_equiv_pos_as_xyz
  1  'x, y, z'
loop_
 _atom_site_type_symbol
 _atom_site_label
 _atom_site_symmetry_multiplicity
 _atom_site_fract_x
 _atom_site_fract_y
 _atom_site_fract_z
 _atom_site_occupancy
  C  C0  1  0.49999485  0.82048003  0.57824646  1
  C  C1  1  0.50000952  0.81069429  0.74035357  1
  C  C2  1  0.50001580  0.80541260  0.90580268  1
  C  C3  1  0.49999460  0.19002278  0.02625521  1
  C  C4  1  0.49999571  0.18835304  0.19463226  1
  C  C5  1  0.49999669  0.18983006  0.36359535  1
  C  C6  1  0.49999571  0.19240412  0.53010436  1
  C  C7  1  0.49999426  0.19369427  0.69475275  1
  C  C8  1  0.49999380  0.19256869  0.85952650  1
  C  C9  1  0.49999615  0.21521306  0.11097494  1
  C  C10  1  0.49999643  0.21473428  0.27859099  1
  C  C11  1  0.49999739  0.21772841  0.44618434  1
  C  C12  1  0.49999653  0.22028872  0.61201859  1
  C  C13  1  0.49999594  0.22034472  0.77740916  1
  C  C14  1  0.49999603  0.21789414  0.94371835  1
  C  C15  1  0.49999862  0.27180437  0.11134459  1
  C  C16  1  0.49999813  0.27110192  0.27828871  1
  C  C17  1  0.49999964  0.27432343  0.44587307  1
  C  C18  1  0.49999962  0.27700968  0.61179938  1
  C  C19  1  0.50000013  0.27700356  0.77744894  1
  C  C20  1  0.49999962  0.27446510  0.94432341  1
  C  C21  1  0.50000048  0.30051545  0.02901073  1
  C  C22  1  0.49999986  0.29849152  0.19520200  1
  C  C23  1  0.50000063  0.29918499  0.36081565  1
  C  C24  1  0.50000094  0.30385810  0.52822291  1
  C  C25  1  0.50000182  0.30536238  0.69430281  1
  C  C26  1  0.50000157  0.30316022  0.86164488  1
  C  C27  1  0.50000307  0.35671770  0.03090872  1
  C  C28  1  0.50000416  0.35467948  0.19570623  1
  C  C29  1  0.50000865  0.35488195  0.35976817  1
  C  C30  1  0.50000665  0.36083189  0.52706409  1
  C  C31  1  0.50000346  0.36224343  0.69388165  1
  C  C32  1  0.50000341  0.35920877  0.86230239  1
  C  C33  1  0.50000506  0.38201558  0.11333042  1
  C  C34  1  0.50000940  0.38159719  0.27750899  1
  C  C35  1  0.50001691  0.38271041  0.44121683  1
  C  C36  1  0.50000355  0.39115017  0.61172433  1
  C  C37  1  0.50000338  0.38857869  0.78015987  1
  C  C38  1  0.50000354  0.38561322  0.94641423  1
  C  C39  1  0.49999835  0.44867507  0.61720886  1
  C  C40  1  0.50000275  0.44435800  0.78418459  1
  C  C41  1  0.50000261  0.43991565  0.94749879  1
  C  C42  1  0.49998821  0.48355302  0.54257600  1
  C  C43  1  0.50000031  0.47469265  0.70327567  1
  C  C44  1  0.50000215  0.47002179  0.86971646  1
  C  C45  1  0.49998889  0.53705999  0.54910647  1
  C  C46  1  0.49999703  0.53110595  0.71050038  1
  C  C47  1  0.50000005  0.52658901  0.87652431  1
  C  C48  1  0.49999334  0.56277554  0.63234246  1
  C  C49  1  0.49999741  0.55690257  0.79686140  1
  C  C50  1  0.50000089  0.55256453  0.96043997  1
  C  C51  1  0.49999165  0.61935052  0.63716622  1
  C  C52  1  0.49999677  0.61299236  0.80277084  1
  C  C53  1  0.49999953  0.60630278  0.96623255  1
  C  C54  1  0.49998812  0.65073427  0.55898665  1
  C  C55  1  0.49999516  0.64431760  0.72229231  1
  C  C56  1  0.49999852  0.63788286  0.88851454  1
  C  C57  1  0.49999072  0.70465898  0.56402205  1
  C  C58  1  0.49999766  0.70020009  0.72767399  1
  C  C59  1  0.50000204  0.69467693  0.89483053  1
  C  C60  1  0.49999585  0.73077527  0.64743392  1
  C  C61  1  0.50000298  0.72489636  0.81451976  1
  C  C62  1  0.50000623  0.72092010  0.97852274  1
  C  C63  1  0.50000008  0.78808205  0.65303194  1
  C  C64  1  0.50000988  0.78107272  0.81986549  1
  C  C65  1  0.50001339  0.77549549  0.98371180  1
  H  H66  1  0.49999885  0.86287771  0.58778103  1
  H  H67  1  0.50001538  0.85337458  0.74560423  1
  H  H68  1  0.50002120  0.84811870  0.90961544  1
  H  H69  1  0.49999220  0.14724091  0.02386285  1
  H  H70  1  0.49999525  0.14551924  0.19427170  1
  H  H71  1  0.49999650  0.14704845  0.36624799  1
  H  H72  1  0.49999370  0.14966949  0.53238053  1
  H  H73  1  0.49999135  0.15089172  0.69487650  1
  H  H74  1  0.49999038  0.14977899  0.85695873  1
  H  H75  1  0.49998595  0.80627716  0.50881455  1
  H  H76  1  0.50000824  0.42458575  0.11798447  1
  H  H77  1  0.50001272  0.42439983  0.27724249  1
  H  H78  1  0.50003682  0.42402594  0.43015304  1
  H  H79  1  0.49997350  0.47067029  0.47376108  1
  H  H80  1  0.49998424  0.55920564  0.48620104  1
  H  H81  1  0.49998365  0.63273705  0.49228742  1
  H  H82  1  0.49998997  0.72697671  0.50115327  1
  H  H83  1  0.50000147  0.45970425  0.01226384  1
  H  H84  1  0.50000382  0.53062844  0.02353819  1
  H  H85  1  0.50000062  0.62406947  0.03319958  1
  H  H86  1  0.50000479  0.69891581  0.04156240  1
  H  H87  1  0.50001714  0.79443748  0.05000040  1
