# generated using pymatgen
data_H4C9
_symmetry_space_group_name_H-M   'P 1'
_cell_length_a   10.00000000
_cell_length_b   17.10430000
_cell_length_c   14.91879673
_cell_angle_alpha   90.00000000
_cell_angle_beta   90.00000000
_cell_angle_gamma   90.00000000
_symmetry_Int_Tables_number   1
_chemical_formula_structural   H4C9
_chemical_formula_sum   'H16 C36'
_cell_volume   2551.75574954
_cell_formula_units_Z   4
loop_
 _symmetry_equiv_pos_site_id
 _symmetry_equiv_pos_as_xyz
  1  'x, y, z'
loop_
 _atom_site_type_symbol
 _atom_site_label
 _atom_site_symmetry_multiplicity
 _atom_site_fract_x
 _atom_site_fract_y
 _atom_site_fract_z
 _atom_site_occupancy
  C  C0  1  0.50000000  0.73124512  0.55841492  1
  C  C1  1  0.50000007  0.70777699  0.71168234  1
  C  C2  1  0.49999996  0.70685261  0.87413276  1
  C  C3  1  0.50000000  0.26875487  0.55841490  1
  C  C4  1  0.50000007  0.29222302  0.71168235  1
  C  C5  1  0.49999996  0.29314739  0.87413277  1
  C  C6  1  0.50000003  0.32652110  0.62440440  1
  C  C7  1  0.50000001  0.33386128  0.79073096  1
  C  C8  1  0.49999996  0.33295255  0.95347697  1
  C  C9  1  0.50000001  0.41840807  0.12178209  1
  C  C10  1  0.50000001  0.41732038  0.28736848  1
  C  C11  1  0.50000000  0.41983289  0.45329135  1
  C  C12  1  0.50000001  0.41361589  0.62052537  1
  C  C13  1  0.50000000  0.41781795  0.78845438  1
  C  C14  1  0.49999999  0.41616848  0.95500140  1
  C  C15  1  0.50000001  0.45756229  0.03958981  1
  C  C16  1  0.50000001  0.45751717  0.20530775  1
  C  C17  1  0.50000000  0.45788317  0.36960538  1
  C  C18  1  0.50000001  0.45717176  0.53705776  1
  C  C19  1  0.50000001  0.45713850  0.70250172  1
  C  C20  1  0.50000000  0.45789953  0.87200557  1
  C  C21  1  0.50000001  0.54243771  0.03958981  1
  C  C22  1  0.50000001  0.54248282  0.20530775  1
  C  C23  1  0.50000000  0.54211683  0.36960538  1
  C  C24  1  0.50000001  0.54282824  0.53705776  1
  C  C25  1  0.50000001  0.54286150  0.70250172  1
  C  C26  1  0.50000000  0.54210046  0.87200557  1
  C  C27  1  0.50000001  0.58159193  0.12178209  1
  C  C28  1  0.50000001  0.58267963  0.28736848  1
  C  C29  1  0.50000000  0.58016712  0.45329135  1
  C  C30  1  0.50000001  0.58638411  0.62052537  1
  C  C31  1  0.50000000  0.58218205  0.78845439  1
  C  C32  1  0.49999999  0.58383151  0.95500140  1
  C  C33  1  0.50000003  0.67347891  0.62440438  1
  C  C34  1  0.50000001  0.66613870  0.79073097  1
  C  C35  1  0.49999996  0.66704745  0.95347697  1
  H  H36  1  0.50000004  0.79201404  0.58207862  1
  H  H37  1  0.50000002  0.77178121  0.71590330  1
  H  H38  1  0.49999998  0.77093395  0.87324433  1
  H  H39  1  0.50000004  0.20798596  0.58207862  1
  H  H40  1  0.50000002  0.22821878  0.71590330  1
  H  H41  1  0.49999998  0.22906605  0.87324433  1
  H  H42  1  0.49999990  0.72598503  0.48596500  1
  H  H43  1  0.49999990  0.27401498  0.48596503  1
  H  H44  1  0.50000000  0.35451576  0.12395548  1
  H  H45  1  0.50000001  0.35309814  0.28720062  1
  H  H46  1  0.50000000  0.35689664  0.45008226  1
  H  H47  1  0.50000000  0.64548424  0.12395548  1
  H  H48  1  0.50000001  0.64690186  0.28720062  1
  H  H49  1  0.50000000  0.64310336  0.45008227  1
  H  H50  1  0.49999996  0.30010119  0.01623698  1
  H  H51  1  0.49999996  0.69989881  0.01623698  1
