# generated using pymatgen
data_H4C27
_symmetry_space_group_name_H-M   'P 1'
_cell_length_a   10.00000000
_cell_length_b   29.89204000
_cell_length_c   14.83758940
_cell_angle_alpha   90.00000000
_cell_angle_beta   90.00000000
_cell_angle_gamma   90.00000000
_symmetry_Int_Tables_number   1
_chemical_formula_structural   H4C27
_chemical_formula_sum   'H16 C108'
_cell_volume   4435.25815707
_cell_formula_units_Z   4
loop_
 _symmetry_equiv_pos_site_id
 _symmetry_equiv_pos_as_xyz
  1  'x, y, z'
loop_
 _atom_site_type_symbol
 _atom_site_label
 _atom_site_symmetry_multiplicity
 _atom_site_fract_x
 _atom_site_fract_y
 _atom_site_fract_z
 _atom_site_occupancy
  C  C0  1  0.50000004  0.84753501  0.55862442  1
  C  C1  1  0.50000000  0.83427217  0.71314174  1
  C  C2  1  0.49999997  0.83369119  0.87696829  1
  C  C3  1  0.50000004  0.15246497  0.55862436  1
  C  C4  1  0.50000000  0.16572785  0.71314177  1
  C  C5  1  0.49999997  0.16630884  0.87696840  1
  C  C6  1  0.50000004  0.18540769  0.62561062  1
  C  C7  1  0.49999998  0.18943392  0.79311094  1
  C  C8  1  0.49999997  0.18950670  0.95643627  1
  C  C9  1  0.49999999  0.23907404  0.12458966  1
  C  C10  1  0.50000000  0.23923805  0.29002227  1
  C  C11  1  0.50000002  0.23925443  0.45500937  1
  C  C12  1  0.50000002  0.23500669  0.62247526  1
  C  C13  1  0.49999999  0.23728605  0.79109918  1
  C  C14  1  0.49999998  0.23705366  0.95747064  1
  C  C15  1  0.49999999  0.26119938  0.04170664  1
  C  C16  1  0.49999999  0.26210632  0.20741464  1
  C  C17  1  0.50000000  0.26230846  0.37249992  1
  C  C18  1  0.50000001  0.26020880  0.53924291  1
  C  C19  1  0.50000000  0.25963823  0.70538198  1
  C  C20  1  0.49999999  0.26100260  0.87411958  1
  C  C21  1  0.50000000  0.30928611  0.04049091  1
  C  C22  1  0.50000000  0.31011676  0.20700076  1
  C  C23  1  0.49999998  0.31016784  0.37310074  1
  C  C24  1  0.50000000  0.30856580  0.54028509  1
  C  C25  1  0.50000000  0.30801113  0.70625324  1
  C  C26  1  0.49999999  0.30895138  0.87377058  1
  C  C27  1  0.50000000  0.33330011  0.12351941  1
  C  C28  1  0.49999999  0.33380675  0.29007139  1
  C  C29  1  0.49999999  0.33294182  0.45712662  1
  C  C30  1  0.50000000  0.33227764  0.62339661  1
  C  C31  1  0.49999999  0.33212276  0.78984325  1
  C  C32  1  0.49999999  0.33284050  0.95699412  1
  C  C33  1  0.50000000  0.38110082  0.12340452  1
  C  C34  1  0.50000000  0.38140544  0.29020822  1
  C  C35  1  0.50000000  0.38080141  0.45720267  1
  C  C36  1  0.50000001  0.38034273  0.62356339  1
  C  C37  1  0.50000000  0.38016771  0.78995387  1
  C  C38  1  0.50000000  0.38063813  0.95677006  1
  C  C39  1  0.50000000  0.40462404  0.03996961  1
  C  C40  1  0.50000000  0.40490806  0.20666709  1
  C  C41  1  0.50000000  0.40474050  0.37389663  1
  C  C42  1  0.50000001  0.40445295  0.54053258  1
  C  C43  1  0.50000001  0.40418411  0.70683703  1
  C  C44  1  0.50000000  0.40422493  0.87322991  1
  C  C45  1  0.50000000  0.45236901  0.03993953  1
  C  C46  1  0.50000000  0.45255935  0.20677328  1
  C  C47  1  0.50000001  0.45246339  0.37384474  1
  C  C48  1  0.50000001  0.45227896  0.54048827  1
  C  C49  1  0.50000001  0.45210757  0.70688178  1
  C  C50  1  0.50000000  0.45214874  0.87326905  1
  C  C51  1  0.50000000  0.47615032  0.12329024  1
  C  C52  1  0.50000001  0.47616035  0.29038012  1
  C  C53  1  0.50000001  0.47613287  0.45720448  1
  C  C54  1  0.50000001  0.47606409  0.62373855  1
  C  C55  1  0.50000000  0.47604478  0.79007876  1
  C  C56  1  0.50000000  0.47608926  0.95651062  1
  C  C57  1  0.50000000  0.52384967  0.12329019  1
  C  C58  1  0.50000001  0.52383965  0.29038014  1
  C  C59  1  0.50000001  0.52386711  0.45720452  1
  C  C60  1  0.50000001  0.52393590  0.62373857  1
  C  C61  1  0.50000000  0.52395522  0.79007874  1
  C  C62  1  0.50000000  0.52391074  0.95651061  1
  C  C63  1  0.50000000  0.54763098  0.03993952  1
  C  C64  1  0.50000000  0.54744066  0.20677331  1
  C  C65  1  0.50000001  0.54753661  0.37384475  1
  C  C66  1  0.50000001  0.54772106  0.54048828  1
  C  C67  1  0.50000001  0.54789244  0.70688176  1
  C  C68  1  0.50000000  0.54785126  0.87326905  1
  C  C69  1  0.50000000  0.59537597  0.03996962  1
  C  C70  1  0.50000000  0.59509194  0.20666708  1
  C  C71  1  0.50000000  0.59525950  0.37389662  1
  C  C72  1  0.50000001  0.59554704  0.54053258  1
  C  C73  1  0.50000001  0.59581589  0.70683706  1
  C  C74  1  0.50000000  0.59577507  0.87322991  1
  C  C75  1  0.50000000  0.61889917  0.12340455  1
  C  C76  1  0.50000000  0.61859454  0.29020825  1
  C  C77  1  0.50000000  0.61919860  0.45720267  1
  C  C78  1  0.50000001  0.61965728  0.62356338  1
  C  C79  1  0.50000000  0.61983229  0.78995386  1
  C  C80  1  0.50000000  0.61936185  0.95677007  1
  C  C81  1  0.50000000  0.66669991  0.12351939  1
  C  C82  1  0.49999999  0.66619327  0.29007137  1
  C  C83  1  0.49999999  0.66705820  0.45712662  1
  C  C84  1  0.50000000  0.66772234  0.62339663  1
  C  C85  1  0.49999999  0.66787725  0.78984326  1
  C  C86  1  0.49999999  0.66715951  0.95699412  1
  C  C87  1  0.50000000  0.69071392  0.04049090  1
  C  C88  1  0.50000000  0.68988324  0.20700078  1
  C  C89  1  0.49999998  0.68983214  0.37310076  1
  C  C90  1  0.50000000  0.69143419  0.54028509  1
  C  C91  1  0.50000000  0.69198886  0.70625323  1
  C  C92  1  0.49999999  0.69104862  0.87377054  1
  C  C93  1  0.49999999  0.73880065  0.04170656  1
  C  C94  1  0.49999999  0.73789368  0.20741463  1
  C  C95  1  0.50000000  0.73769154  0.37249992  1
  C  C96  1  0.50000001  0.73979120  0.53924287  1
  C  C97  1  0.50000000  0.74036176  0.70538201  1
  C  C98  1  0.49999999  0.73899738  0.87411965  1
  C  C99  1  0.49999999  0.76092597  0.12458970  1
  C  C100  1  0.50000000  0.76076191  0.29002225  1
  C  C101  1  0.50000002  0.76074551  0.45500940  1
  C  C102  1  0.50000002  0.76499330  0.62247525  1
  C  C103  1  0.49999999  0.76271395  0.79109912  1
  C  C104  1  0.49999998  0.76294632  0.95747057  1
  C  C105  1  0.50000004  0.81459228  0.62561059  1
  C  C106  1  0.49999998  0.81056606  0.79311107  1
  C  C107  1  0.49999997  0.81049324  0.95643643  1
  H  H108  1  0.50000008  0.88232595  0.58229059  1
  H  H109  1  0.50000001  0.87089469  0.71689424  1
  H  H110  1  0.49999995  0.87036552  0.87622250  1
  H  H111  1  0.50000008  0.11767409  0.58229059  1
  H  H112  1  0.50000001  0.12910536  0.71689425  1
  H  H113  1  0.49999995  0.12963450  0.87622252  1
  H  H114  1  0.49999992  0.84456349  0.48574870  1
  H  H115  1  0.49999992  0.15543651  0.48574883  1
  H  H116  1  0.49999997  0.20256598  0.12752161  1
  H  H117  1  0.49999999  0.20255318  0.28989220  1
  H  H118  1  0.50000006  0.20328237  0.45039946  1
  H  H119  1  0.49999997  0.79743406  0.12752161  1
  H  H120  1  0.49999999  0.79744685  0.28989221  1
  H  H121  1  0.50000006  0.79671768  0.45039946  1
  H  H122  1  0.50000003  0.17078504  0.01961842  1
  H  H123  1  0.50000003  0.82921498  0.01961842  1
