# generated using pymatgen
data_H5C21
_symmetry_space_group_name_H-M   'P 1'
_cell_length_a   10.00000000
_cell_length_b   29.89204000
_cell_length_c   14.83715225
_cell_angle_alpha   90.00000000
_cell_angle_beta   90.00000000
_cell_angle_gamma   90.00000000
_symmetry_Int_Tables_number   1
_chemical_formula_structural   H5C21
_chemical_formula_sum   'H20 C84'
_cell_volume   4435.12748437
_cell_formula_units_Z   4
loop_
 _symmetry_equiv_pos_site_id
 _symmetry_equiv_pos_as_xyz
  1  'x, y, z'
loop_
 _atom_site_type_symbol
 _atom_site_label
 _atom_site_symmetry_multiplicity
 _atom_site_fract_x
 _atom_site_fract_y
 _atom_site_fract_z
 _atom_site_occupancy
  C  C0  1  0.50000006  0.20038778  0.03306085  1
  C  C1  1  0.50000017  0.20010987  0.20030176  1
  C  C2  1  0.50000015  0.20027731  0.36764933  1
  C  C3  1  0.50000000  0.20063857  0.53436673  1
  C  C4  1  0.49999988  0.20091427  0.70056046  1
  C  C5  1  0.49999993  0.20082991  0.86662332  1
  C  C6  1  0.50000011  0.22287191  0.11677199  1
  C  C7  1  0.50000014  0.22283035  0.28397220  1
  C  C8  1  0.50000007  0.22324860  0.45096039  1
  C  C9  1  0.49999994  0.22368007  0.61739709  1
  C  C10  1  0.49999991  0.22379632  0.78361044  1
  C  C11  1  0.49999999  0.22347724  0.94997115  1
  C  C12  1  0.50000005  0.27124036  0.11684322  1
  C  C13  1  0.50000005  0.27120285  0.28411792  1
  C  C14  1  0.50000001  0.27161564  0.45108222  1
  C  C15  1  0.49999997  0.27207915  0.61742392  1
  C  C16  1  0.49999994  0.27223760  0.78363155  1
  C  C17  1  0.49999999  0.27184216  0.95002804  1
  C  C18  1  0.50000000  0.29511957  0.03360550  1
  C  C19  1  0.50000001  0.29459829  0.20044155  1
  C  C20  1  0.49999998  0.29493003  0.36763485  1
  C  C21  1  0.49999995  0.29557924  0.53424026  1
  C  C22  1  0.49999997  0.29597714  0.70047461  1
  C  C23  1  0.49999995  0.29584175  0.86690290  1
  C  C24  1  0.49999996  0.34303902  0.03364482  1
  C  C25  1  0.49999985  0.34241146  0.20042292  1
  C  C26  1  0.49999981  0.34285633  0.36790277  1
  C  C27  1  0.49999979  0.34365899  0.53460392  1
  C  C28  1  0.49999992  0.34412640  0.70061500  1
  C  C29  1  0.49999999  0.34394970  0.86683418  1
  C  C30  1  0.49999987  0.36625249  0.11728680  1
  C  C31  1  0.49999966  0.36583614  0.28396813  1
  C  C32  1  0.49999971  0.36699740  0.45127032  1
  C  C33  1  0.49999969  0.36801560  0.61750169  1
  C  C34  1  0.49999999  0.36806680  0.78369265  1
  C  C35  1  0.50000001  0.36725392  0.95054334  1
  C  C36  1  0.49999984  0.41403254  0.11766664  1
  C  C37  1  0.49999943  0.41340072  0.28397170  1
  C  C38  1  0.49999953  0.41497554  0.45151092  1
  C  C39  1  0.49999952  0.41630877  0.61752919  1
  C  C40  1  0.50000010  0.41626559  0.78349937  1
  C  C41  1  0.50000008  0.41513243  0.95075276  1
  C  C42  1  0.49999999  0.43813167  0.03483635  1
  C  C43  1  0.49999969  0.43715335  0.20116411  1
  C  C44  1  0.49999947  0.43698071  0.36690582  1
  C  C45  1  0.49999940  0.43997967  0.53442053  1
  C  C46  1  0.50000002  0.44079796  0.70038689  1
  C  C47  1  0.50000014  0.43933730  0.86738438  1
  C  C48  1  0.49999995  0.48600657  0.03659360  1
  C  C49  1  0.49999990  0.48512952  0.20163914  1
  C  C50  1  0.50000123  0.48455320  0.36595091  1
  C  C51  1  0.50000083  0.48873476  0.53343662  1
  C  C52  1  0.50000004  0.48948351  0.70007408  1
  C  C53  1  0.50000017  0.48728736  0.86784170  1
  C  C54  1  0.49999983  0.50814138  0.11885574  1
  C  C55  1  0.50000093  0.50795059  0.28396546  1
  C  C56  1  0.50000427  0.50791299  0.44780787  1
  C  C57  1  0.49999979  0.51457724  0.61803847  1
  C  C58  1  0.50000019  0.51241540  0.78580723  1
  C  C59  1  0.50000020  0.51024640  0.95183979  1
  C  C60  1  0.49999830  0.56393684  0.62335220  1
  C  C61  1  0.50000073  0.56033301  0.78991455  1
  C  C62  1  0.50000056  0.55671521  0.95285840  1
  C  C63  1  0.49999415  0.59385393  0.54875148  1
  C  C64  1  0.50000021  0.58638895  0.70922904  1
  C  C65  1  0.50000103  0.58251210  0.87525511  1
  C  C66  1  0.49999660  0.63970714  0.55512741  1
  C  C67  1  0.50000024  0.63482925  0.71651947  1
  C  C68  1  0.50000145  0.63101351  0.88265966  1
  C  C69  1  0.49999965  0.66188837  0.63817443  1
  C  C70  1  0.50000080  0.65697149  0.80305422  1
  C  C71  1  0.50000230  0.65329611  0.96667698  1
  C  C72  1  0.49999957  0.71045140  0.64290454  1
  C  C73  1  0.50000069  0.70505343  0.80919434  1
  C  C74  1  0.50000221  0.69947782  0.97254430  1
  C  C75  1  0.49999821  0.73737098  0.56472357  1
  C  C76  1  0.49999997  0.73144174  0.72849096  1
  C  C77  1  0.50000141  0.72653212  0.89503130  1
  C  C78  1  0.49999773  0.78413258  0.57054876  1
  C  C79  1  0.49999973  0.77956850  0.73446659  1
  C  C80  1  0.50000140  0.77573076  0.90141734  1
  C  C81  1  0.49999869  0.80520105  0.65387799  1
  C  C82  1  0.50000047  0.80018285  0.81935629  1
  C  C83  1  0.50000237  0.79906326  0.98217461  1
  H  H84  1  0.50000006  0.16368240  0.03217909  1
  H  H85  1  0.50000019  0.16338758  0.20006209  1
  H  H86  1  0.50000016  0.16357066  0.36794078  1
  H  H87  1  0.49999997  0.16395429  0.53489521  1
  H  H88  1  0.49999985  0.16421899  0.70072619  1
  H  H89  1  0.49999990  0.16413972  0.86620158  1
  H  H90  1  0.49999852  0.84179807  0.65861993  1
  H  H91  1  0.50000035  0.83685210  0.82267141  1
  H  H92  1  0.50000213  0.83574307  0.98096465  1
  H  H93  1  0.49999989  0.54463039  0.12256736  1
  H  H94  1  0.50000112  0.54465946  0.28440905  1
  H  H95  1  0.50001189  0.54334310  0.43728619  1
  H  H96  1  0.49998607  0.58312689  0.47977839  1
  H  H97  1  0.49999484  0.65855532  0.49202760  1
  H  H98  1  0.49999721  0.72204950  0.49784582  1
  H  H99  1  0.49999648  0.80412189  0.50864027  1
  H  H100  1  0.50000042  0.57372269  0.01746909  1
  H  H101  1  0.50000301  0.63453278  0.02989381  1
  H  H102  1  0.50000275  0.71496064  0.03935607  1
  H  H103  1  0.50000372  0.78299435  0.04832386  1
