# generated using pymatgen
data_H4C27
_symmetry_space_group_name_H-M   'P 1'
_cell_length_a   10.00000000
_cell_length_b   29.89204000
_cell_length_c   14.82826042
_cell_angle_alpha   90.00000000
_cell_angle_beta   90.00000000
_cell_angle_gamma   90.00000000
_symmetry_Int_Tables_number   1
_chemical_formula_structural   H4C27
_chemical_formula_sum   'H16 C108'
_cell_volume   4432.46953519
_cell_formula_units_Z   4
loop_
 _symmetry_equiv_pos_site_id
 _symmetry_equiv_pos_as_xyz
  1  'x, y, z'
loop_
 _atom_site_type_symbol
 _atom_site_label
 _atom_site_symmetry_multiplicity
 _atom_site_fract_x
 _atom_site_fract_y
 _atom_site_fract_z
 _atom_site_occupancy
  C  C0  1  0.49999986  0.83530717  0.53232353  1
  C  C1  1  0.50000021  0.83540424  0.69514610  1
  C  C2  1  0.49999994  0.84150250  0.85704845  1
  C  C3  1  0.50000000  0.16543200  0.04302196  1
  C  C4  1  0.49999999  0.16542236  0.20971831  1
  C  C5  1  0.50000000  0.16540724  0.37642337  1
  C  C6  1  0.50000000  0.16540155  0.54309332  1
  C  C7  1  0.50000000  0.16541428  0.70973558  1
  C  C8  1  0.50000000  0.16543189  0.87636636  1
  C  C9  1  0.50000000  0.18824918  0.12637411  1
  C  C10  1  0.50000000  0.18822334  0.29309703  1
  C  C11  1  0.50000000  0.18821314  0.45977569  1
  C  C12  1  0.50000000  0.18821580  0.62642330  1
  C  C13  1  0.50000000  0.18824002  0.79303985  1
  C  C14  1  0.50000000  0.18825963  0.95968488  1
  C  C15  1  0.50000000  0.23665991  0.12636203  1
  C  C16  1  0.50000000  0.23662961  0.29312705  1
  C  C17  1  0.50000001  0.23662139  0.45982372  1
  C  C18  1  0.50000000  0.23662497  0.62646819  1
  C  C19  1  0.50000000  0.23665095  0.79303903  1
  C  C20  1  0.49999999  0.23667302  0.95965546  1
  C  C21  1  0.49999999  0.26036679  0.04300810  1
  C  C22  1  0.50000001  0.26032832  0.20976760  1
  C  C23  1  0.50000001  0.26033022  0.37650585  1
  C  C24  1  0.50000000  0.26033193  0.54317711  1
  C  C25  1  0.50000000  0.26036653  0.70976133  1
  C  C26  1  0.49999999  0.26037926  0.87633409  1
  C  C27  1  0.49999999  0.30830995  0.04303890  1
  C  C28  1  0.50000001  0.30826115  0.20981093  1
  C  C29  1  0.50000001  0.30828017  0.37660098  1
  C  C30  1  0.50000000  0.30829665  0.54330442  1
  C  C31  1  0.50000000  0.30834698  0.70987711  1
  C  C32  1  0.49999999  0.30834875  0.87639255  1
  C  C33  1  0.50000000  0.33203225  0.12644312  1
  C  C34  1  0.50000000  0.33201097  0.29322927  1
  C  C35  1  0.50000001  0.33207208  0.46001291  1
  C  C36  1  0.50000000  0.33214892  0.62663248  1
  C  C37  1  0.50000000  0.33219654  0.79315983  1
  C  C38  1  0.49999999  0.33212155  0.95972107  1
  C  C39  1  0.49999999  0.37986605  0.12645995  1
  C  C40  1  0.50000000  0.37982574  0.29333941  1
  C  C41  1  0.50000001  0.37992290  0.46022834  1
  C  C42  1  0.50000002  0.38005561  0.62684757  1
  C  C43  1  0.50000000  0.38010645  0.79327936  1
  C  C44  1  0.49999999  0.37999034  0.95974988  1
  C  C45  1  0.49999999  0.40372477  0.04311374  1
  C  C46  1  0.49999999  0.40356832  0.20991564  1
  C  C47  1  0.50000000  0.40357700  0.37685216  1
  C  C48  1  0.50000002  0.40385381  0.54362024  1
  C  C49  1  0.50000001  0.40401262  0.71010813  1
  C  C50  1  0.49999999  0.40394029  0.87655998  1
  C  C51  1  0.49999999  0.45155331  0.04309248  1
  C  C52  1  0.50000000  0.45132167  0.21000964  1
  C  C53  1  0.50000002  0.45132995  0.37714941  1
  C  C54  1  0.50000002  0.45172816  0.54399394  1
  C  C55  1  0.50000001  0.45195441  0.71037080  1
  C  C56  1  0.50000000  0.45185249  0.87662912  1
  C  C57  1  0.49999999  0.47513530  0.12654234  1
  C  C58  1  0.50000002  0.47488034  0.29369949  1
  C  C59  1  0.50000002  0.47528540  0.46053842  1
  C  C60  1  0.50000001  0.47586084  0.62727356  1
  C  C61  1  0.50000000  0.47593736  0.79358643  1
  C  C62  1  0.49999999  0.47563159  0.95986228  1
  C  C63  1  0.49999998  0.52288659  0.12646802  1
  C  C64  1  0.50000001  0.52252021  0.29393115  1
  C  C65  1  0.50000002  0.52307883  0.46073017  1
  C  C66  1  0.50000000  0.52383379  0.62756072  1
  C  C67  1  0.50000000  0.52398285  0.79375834  1
  C  C68  1  0.49999999  0.52354759  0.95976909  1
  C  C69  1  0.49999998  0.54701379  0.04316634  1
  C  C70  1  0.49999999  0.54599701  0.21042844  1
  C  C71  1  0.50000000  0.54641907  0.37715124  1
  C  C72  1  0.50000001  0.54731118  0.54395971  1
  C  C73  1  0.50000000  0.54806967  0.71077506  1
  C  C74  1  0.49999999  0.54795357  0.87690553  1
  C  C75  1  0.49999998  0.59492105  0.04313957  1
  C  C76  1  0.49999997  0.59349005  0.21069304  1
  C  C77  1  0.49999998  0.59418346  0.37700539  1
  C  C78  1  0.49999999  0.59519352  0.54392358  1
  C  C79  1  0.49999999  0.59628161  0.71109036  1
  C  C80  1  0.49999999  0.59618712  0.87696780  1
  C  C81  1  0.49999998  0.61703772  0.12773426  1
  C  C82  1  0.49999996  0.61733731  0.29355381  1
  C  C83  1  0.49999999  0.61832761  0.45992679  1
  C  C84  1  0.49999999  0.61944387  0.62723896  1
  C  C85  1  0.50000000  0.62082686  0.79431699  1
  C  C86  1  0.50000000  0.61983779  0.96013151  1
  C  C87  1  0.49999999  0.66458028  0.12878800  1
  C  C88  1  0.49999997  0.66532643  0.29309611  1
  C  C89  1  0.49999997  0.66623239  0.45823130  1
  C  C90  1  0.49999998  0.66744094  0.62679030  1
  C  C91  1  0.50000002  0.66954043  0.79504418  1
  C  C92  1  0.50000002  0.66844101  0.96135789  1
  C  C93  1  0.49999997  0.68783187  0.04690648  1
  C  C94  1  0.50000000  0.68810744  0.21064250  1
  C  C95  1  0.50000000  0.68838760  0.37583707  1
  C  C96  1  0.49999995  0.69058954  0.54284445  1
  C  C97  1  0.50000000  0.69241654  0.70906710  1
  C  C98  1  0.50000006  0.69446027  0.87757921  1
  C  C99  1  0.49999996  0.73723338  0.54210643  1
  C  C100  1  0.49999999  0.74029638  0.70542982  1
  C  C101  1  0.50000008  0.74406508  0.87337840  1
  C  C102  1  0.50000001  0.76270735  0.61985982  1
  C  C103  1  0.49999999  0.76566670  0.78679074  1
  C  C104  1  0.50000010  0.77446680  0.94749817  1
  C  C105  1  0.50000016  0.81180473  0.61284370  1
  C  C106  1  0.50000003  0.81420644  0.77926361  1
  C  C107  1  0.50000000  0.82110222  0.94022293  1
  H  H108  1  0.49999977  0.87197920  0.53379688  1
  H  H109  1  0.50000021  0.87208524  0.69352248  1
  H  H110  1  0.50000008  0.87795542  0.84963573  1
  H  H111  1  0.50000000  0.12871334  0.04296572  1
  H  H112  1  0.49999999  0.12870819  0.20964352  1
  H  H113  1  0.50000000  0.12870414  0.37631090  1
  H  H114  1  0.50000000  0.12870316  0.54307123  1
  H  H115  1  0.50000000  0.12871470  0.70977197  1
  H  H116  1  0.50000000  0.12872124  0.87637572  1
  H  H117  1  0.49999961  0.81953076  0.46581352  1
  H  H118  1  0.49999990  0.72328593  0.05684744  1
  H  H119  1  0.50000001  0.72481454  0.20965292  1
  H  H120  1  0.50000003  0.72488914  0.37244462  1
  H  H121  1  0.49999998  0.75483452  0.47788151  1
  H  H122  1  0.50000016  0.76392778  0.01674138  1
  H  H123  1  0.50000015  0.84103470  0.00227307  1
