# generated using pymatgen
data_HC3
_symmetry_space_group_name_H-M   'P 1'
_cell_length_a   10.00000000
_cell_length_b   25.62946000
_cell_length_c   14.84429350
_cell_angle_alpha   90.00000000
_cell_angle_beta   90.00000000
_cell_angle_gamma   90.00000000
_symmetry_Int_Tables_number   1
_chemical_formula_structural   HC3
_chemical_formula_sum   'H20 C60'
_cell_volume   3804.51226414
_cell_formula_units_Z   20
loop_
 _symmetry_equiv_pos_site_id
 _symmetry_equiv_pos_as_xyz
  1  'x, y, z'
loop_
 _atom_site_type_symbol
 _atom_site_label
 _atom_site_symmetry_multiplicity
 _atom_site_fract_x
 _atom_site_fract_y
 _atom_site_fract_z
 _atom_site_occupancy
  C  C0  1  0.50000013  0.23518015  0.51988333  1
  C  C1  1  0.49999988  0.23379796  0.68266770  1
  C  C2  1  0.49999977  0.22795631  0.84805671  1
  C  C3  1  0.49999983  0.26232684  0.60068818  1
  C  C4  1  0.49999971  0.25785797  0.76750734  1
  C  C5  1  0.50000123  0.25254466  0.93130691  1
  C  C6  1  0.49999925  0.31971111  0.60710234  1
  C  C7  1  0.49999973  0.31398214  0.77353073  1
  C  C8  1  0.50000188  0.30705996  0.93716085  1
  C  C9  1  0.49999825  0.35124932  0.52964030  1
  C  C10  1  0.49999932  0.34477132  0.69287732  1
  C  C11  1  0.50000032  0.33845823  0.85905554  1
  C  C12  1  0.49999734  0.40512853  0.53541309  1
  C  C13  1  0.49999871  0.40086885  0.69895922  1
  C  C14  1  0.50000027  0.39509985  0.86387927  1
  C  C15  1  0.49999774  0.43114547  0.61933291  1
  C  C16  1  0.49999916  0.42662094  0.78554017  1
  C  C17  1  0.50000492  0.42090452  0.94697584  1
  C  C18  1  0.49999739  0.48776334  0.62651092  1
  C  C19  1  0.49999875  0.48306991  0.79282185  1
  C  C20  1  0.50000830  0.47437097  0.95349642  1
  C  C21  1  0.49999795  0.51794287  0.54895854  1
  C  C22  1  0.49999764  0.51340746  0.71204640  1
  C  C23  1  0.50000168  0.50911470  0.87885823  1
  C  C24  1  0.49999105  0.57487334  0.05554050  1
  C  C25  1  0.49999490  0.57582881  0.21919971  1
  C  C26  1  0.49999717  0.57558233  0.38349814  1
  C  C27  1  0.49999813  0.57224545  0.55021001  1
  C  C28  1  0.49999852  0.56922062  0.71633085  1
  C  C29  1  0.49999943  0.56663545  0.88469389  1
  C  C30  1  0.49999538  0.60267602  0.13700239  1
  C  C31  1  0.49999697  0.60273757  0.30101820  1
  C  C32  1  0.49999807  0.60103594  0.46573324  1
  C  C33  1  0.49999853  0.59861713  0.63432084  1
  C  C34  1  0.49999926  0.59559800  0.80259014  1
  C  C35  1  0.49999759  0.59675625  0.96966755  1
  C  C36  1  0.49999960  0.65834940  0.13590634  1
  C  C37  1  0.49999871  0.65893353  0.30147846  1
  C  C38  1  0.49999875  0.65717290  0.46764398  1
  C  C39  1  0.49999927  0.65469493  0.63500806  1
  C  C40  1  0.50000004  0.65246958  0.80228514  1
  C  C41  1  0.50000074  0.65378342  0.96848214  1
  C  C42  1  0.50000086  0.68328058  0.05087134  1
  C  C43  1  0.50000030  0.68639530  0.21847426  1
  C  C44  1  0.49999939  0.68570253  0.38525734  1
  C  C45  1  0.49999941  0.68328519  0.55227044  1
  C  C46  1  0.50000019  0.68087267  0.71918884  1
  C  C47  1  0.50000127  0.68077050  0.88491329  1
  C  C48  1  0.50000240  0.73988694  0.05061990  1
  C  C49  1  0.50000242  0.74278258  0.21815974  1
  C  C50  1  0.50000116  0.74229171  0.38564990  1
  C  C51  1  0.50000031  0.73982809  0.55286068  1
  C  C52  1  0.50000104  0.73753348  0.71925322  1
  C  C53  1  0.50000211  0.73752066  0.88477388  1
  C  C54  1  0.50000333  0.76775248  0.13324645  1
  C  C55  1  0.50000296  0.76917096  0.30207152  1
  C  C56  1  0.50000111  0.76756667  0.47025313  1
  C  C57  1  0.50000081  0.76520812  0.63702250  1
  C  C58  1  0.50000183  0.76414185  0.80202129  1
  C  C59  1  0.50000298  0.76531721  0.96678736  1
  H  H60  1  0.50000099  0.19240278  0.52069644  1
  H  H61  1  0.49999982  0.19104181  0.67931319  1
  H  H62  1  0.49999875  0.18527344  0.84342377  1
  H  H63  1  0.50000488  0.81054991  0.13069511  1
  H  H64  1  0.50000472  0.81201392  0.30254106  1
  H  H65  1  0.50000179  0.81036188  0.47248621  1
  H  H66  1  0.50000095  0.80800576  0.63943165  1
  H  H67  1  0.50000200  0.80694629  0.80203169  1
  H  H68  1  0.50000404  0.80807866  0.96471796  1
  H  H69  1  0.50000053  0.25395043  0.45379135  1
  H  H70  1  0.49999808  0.33317300  0.46288134  1
  H  H71  1  0.49999617  0.42698412  0.47217375  1
  H  H72  1  0.49999862  0.49811954  0.48429321  1
  H  H73  1  0.49997865  0.53357144  0.06706870  1
  H  H74  1  0.49999404  0.53302694  0.21941272  1
  H  H75  1  0.49999649  0.53301213  0.37919240  1
  H  H76  1  0.50000161  0.22925461  -0.00681121  1
  H  H77  1  0.50000392  0.32501544  0.00391676  1
  H  H78  1  0.50000812  0.39877455  0.00989265  1
  H  H79  1  0.50002065  0.48727327  0.02227646  1
