# generated using pymatgen
data_H11C27
_symmetry_space_group_name_H-M   'P 1'
_cell_length_a   10.00000000
_cell_length_b   25.62946000
_cell_length_c   14.94965618
_cell_angle_alpha   90.00000000
_cell_angle_beta   90.00000000
_cell_angle_gamma   90.00000000
_symmetry_Int_Tables_number   1
_chemical_formula_structural   H11C27
_chemical_formula_sum   'H22 C54'
_cell_volume   3831.51615181
_cell_formula_units_Z   2
loop_
 _symmetry_equiv_pos_site_id
 _symmetry_equiv_pos_as_xyz
  1  'x, y, z'
loop_
 _atom_site_type_symbol
 _atom_site_label
 _atom_site_symmetry_multiplicity
 _atom_site_fract_x
 _atom_site_fract_y
 _atom_site_fract_z
 _atom_site_occupancy
  C  C0  1  0.49999901  0.22282519  0.55975999  1
  C  C1  1  0.49999809  0.23087379  0.72134688  1
  C  C2  1  0.49999814  0.23556293  0.88462218  1
  C  C3  1  0.49999839  0.25412420  0.63546544  1
  C  C4  1  0.49999828  0.26063116  0.79999708  1
  C  C5  1  0.49999931  0.26480884  0.96259218  1
  C  C6  1  0.49999856  0.31146552  0.63246895  1
  C  C7  1  0.49999905  0.31703387  0.79579624  1
  C  C8  1  0.50000035  0.31937465  0.95849966  1
  C  C9  1  0.49999926  0.33787361  0.55111840  1
  C  C10  1  0.49999890  0.34300099  0.71061569  1
  C  C11  1  0.50000007  0.34619747  0.87594112  1
  C  C12  1  0.49999994  0.39151096  0.54597691  1
  C  C13  1  0.49999956  0.39968184  0.70497179  1
  C  C14  1  0.50000056  0.40301401  0.87017101  1
  C  C15  1  0.49999975  0.42628676  0.62032555  1
  C  C16  1  0.50000014  0.42957509  0.78586348  1
  C  C17  1  0.50000106  0.43214524  0.94839673  1
  C  C18  1  0.49999997  0.48730644  0.11805064  1
  C  C19  1  0.49999928  0.48769582  0.28364169  1
  C  C20  1  0.49999937  0.49117733  0.44830965  1
  C  C21  1  0.50000000  0.48432145  0.61670112  1
  C  C22  1  0.50000035  0.48574284  0.78328258  1
  C  C23  1  0.50000070  0.48632671  0.94962037  1
  C  C24  1  0.50000033  0.51319447  0.03624796  1
  C  C25  1  0.49999976  0.51391827  0.20136322  1
  C  C26  1  0.49999967  0.51578664  0.36447372  1
  C  C27  1  0.50000003  0.51457252  0.53282930  1
  C  C28  1  0.50000030  0.51354417  0.69800309  1
  C  C29  1  0.50000047  0.51361606  0.86629760  1
  C  C30  1  0.50000012  0.56930167  0.03624299  1
  C  C31  1  0.50000011  0.57057938  0.20105956  1
  C  C32  1  0.50000024  0.57145037  0.36433037  1
  C  C33  1  0.50000050  0.57210534  0.53299491  1
  C  C34  1  0.50000068  0.57156324  0.69845858  1
  C  C35  1  0.50000045  0.56973145  0.86684324  1
  C  C36  1  0.50000004  0.59600342  0.11716123  1
  C  C37  1  0.50000046  0.59827239  0.28226662  1
  C  C38  1  0.50000035  0.59607878  0.44856926  1
  C  C39  1  0.50000087  0.60154260  0.61756453  1
  C  C40  1  0.50000082  0.59828595  0.78472306  1
  C  C41  1  0.50000023  0.59646328  0.95059344  1
  C  C42  1  0.50000120  0.65967759  0.62292460  1
  C  C43  1  0.50000115  0.65426452  0.78903742  1
  C  C44  1  0.50000033  0.65073296  0.95112300  1
  C  C45  1  0.50000108  0.69582712  0.55032957  1
  C  C46  1  0.50000132  0.68441696  0.70915379  1
  C  C47  1  0.50000088  0.68025071  0.87409424  1
  C  C48  1  0.50000082  0.75021459  0.55864003  1
  C  C49  1  0.50000108  0.74101214  0.71777390  1
  C  C50  1  0.50000060  0.73742130  0.88239115  1
  C  C51  1  0.50000082  0.77347713  0.64146945  1
  C  C52  1  0.50000055  0.76540552  0.80139043  1
  C  C53  1  0.50000017  0.76438290  0.96270598  1
  H  H54  1  0.49999941  0.18028210  0.56743164  1
  H  H55  1  0.49999822  0.18816760  0.72652873  1
  H  H56  1  0.49999704  0.19279778  0.88677065  1
  H  H57  1  0.50000019  0.81596744  0.64976228  1
  H  H58  1  0.49999984  0.80817955  0.80340896  1
  H  H59  1  0.49999958  0.80713656  0.96190072  1
  H  H60  1  0.49999946  0.23807165  0.49145226  1
  H  H61  1  0.49999960  0.31625902  0.48803020  1
  H  H62  1  0.50000103  0.40368377  0.47742889  1
  H  H63  1  0.49999988  0.44468092  0.12137795  1
  H  H64  1  0.49999890  0.44485462  0.28513679  1
  H  H65  1  0.49999828  0.44981641  0.44076902  1
  H  H66  1  0.49999985  0.63860998  0.11913603  1
  H  H67  1  0.50000084  0.64114642  0.28105553  1
  H  H68  1  0.50000002  0.63762933  0.44189458  1
  H  H69  1  0.50000145  0.68460667  0.48110387  1
  H  H70  1  0.50000053  0.77383801  0.49752376  1
  H  H71  1  0.49999931  0.24530677  0.02782539  1
  H  H72  1  0.50000139  0.34080677  0.02165988  1
  H  H73  1  0.50000149  0.41159853  0.01195655  1
  H  H74  1  0.49999981  0.67123490  0.01477233  1
  H  H75  1  0.50000041  0.74577977  0.02848241  1
