# generated using pymatgen
data_H3C7
_symmetry_space_group_name_H-M   'P 1'
_cell_length_a   10.00000000
_cell_length_b   21.36688000
_cell_length_c   14.83444282
_cell_angle_alpha   90.00000000
_cell_angle_beta   90.00000000
_cell_angle_gamma   90.00000000
_symmetry_Int_Tables_number   1
_chemical_formula_structural   H3C7
_chemical_formula_sum   'H18 C42'
_cell_volume   3169.65759532
_cell_formula_units_Z   6
loop_
 _symmetry_equiv_pos_site_id
 _symmetry_equiv_pos_as_xyz
  1  'x, y, z'
loop_
 _atom_site_type_symbol
 _atom_site_label
 _atom_site_symmetry_multiplicity
 _atom_site_fract_x
 _atom_site_fract_y
 _atom_site_fract_z
 _atom_site_occupancy
  C  C0  1  0.49999919  0.26583409  0.56675548  1
  C  C1  1  0.49999928  0.27722529  0.72952798  1
  C  C2  1  0.50000006  0.28406713  0.89429255  1
  C  C3  1  0.49999887  0.30412471  0.64225347  1
  C  C4  1  0.49999929  0.31344473  0.80838575  1
  C  C5  1  0.50000100  0.31976121  0.97233866  1
  C  C6  1  0.49999843  0.37288668  0.63722381  1
  C  C7  1  0.49999908  0.38098900  0.80282680  1
  C  C8  1  0.50000084  0.38524176  0.96702923  1
  C  C9  1  0.49999782  0.40365679  0.55403900  1
  C  C10  1  0.49999897  0.41095194  0.71579456  1
  C  C11  1  0.49999968  0.41665796  0.88323425  1
  C  C12  1  0.49999845  0.46801877  0.54738306  1
  C  C13  1  0.49999951  0.47862885  0.70866277  1
  C  C14  1  0.49999968  0.48482619  0.87606328  1
  C  C15  1  0.49999966  0.50937219  0.62225490  1
  C  C16  1  0.49999991  0.51487928  0.78984055  1
  C  C17  1  0.49999983  0.52165163  0.95329117  1
  C  C18  1  0.49999974  0.59413792  0.11805940  1
  C  C19  1  0.49999987  0.59501999  0.28154420  1
  C  C20  1  0.50000083  0.59060176  0.44443555  1
  C  C21  1  0.50000043  0.57836250  0.61622628  1
  C  C22  1  0.50000057  0.58175781  0.78517966  1
  C  C23  1  0.50000035  0.58710739  0.95133362  1
  C  C24  1  0.50000037  0.62311369  0.03497584  1
  C  C25  1  0.49999974  0.62755722  0.20007715  1
  C  C26  1  0.50000008  0.62613748  0.36441639  1
  C  C27  1  0.50000044  0.61484697  0.53136052  1
  C  C28  1  0.50000080  0.61246232  0.69845512  1
  C  C29  1  0.50000092  0.61759485  0.86664715  1
  C  C30  1  0.50000072  0.69119090  0.03216916  1
  C  C31  1  0.49999979  0.69569139  0.19966574  1
  C  C32  1  0.49999971  0.69375854  0.36661410  1
  C  C33  1  0.50000000  0.68359759  0.53366982  1
  C  C34  1  0.50000091  0.68083751  0.69886384  1
  C  C35  1  0.50000137  0.68550396  0.86502934  1
  C  C36  1  0.50000024  0.72532504  0.11403558  1
  C  C37  1  0.49999964  0.72706869  0.28387787  1
  C  C38  1  0.49999975  0.72006513  0.45377587  1
  C  C39  1  0.50000016  0.71393827  0.61745705  1
  C  C40  1  0.50000146  0.71468121  0.78044180  1
  C  C41  1  0.50000131  0.71998334  0.94634851  1
  H  H42  1  0.50000003  0.21484371  0.57482920  1
  H  H43  1  0.49999995  0.22607156  0.73564978  1
  H  H44  1  0.50000024  0.23276504  0.89735817  1
  H  H45  1  0.50000020  0.77665642  0.11074776  1
  H  H46  1  0.49999954  0.77844062  0.28532375  1
  H  H47  1  0.49999975  0.77112774  0.46162124  1
  H  H48  1  0.49999966  0.76524503  0.61975906  1
  H  H49  1  0.50000162  0.76597433  0.77675755  1
  H  H50  1  0.50000136  0.77125223  0.94197189  1
  H  H51  1  0.49999901  0.28370766  0.49771614  1
  H  H52  1  0.49999702  0.37673020  0.49129169  1
  H  H53  1  0.49999767  0.48448763  0.47883778  1
  H  H54  1  0.49999922  0.54313547  0.12368391  1
  H  H55  1  0.49999995  0.54364893  0.28060021  1
  H  H56  1  0.50000218  0.54111128  0.43085512  1
  H  H57  1  0.50000211  0.29696436  0.03857858  1
  H  H58  1  0.50000203  0.41164197  0.03015478  1
  H  H59  1  0.49999970  0.49833087  0.01840655  1
