# generated using pymatgen
data_H5C21
_symmetry_space_group_name_H-M   'P 1'
_cell_length_a   10.00000000
_cell_length_b   29.89204000
_cell_length_c   14.85927917
_cell_angle_alpha   90.00000000
_cell_angle_beta   90.00000000
_cell_angle_gamma   90.00000000
_symmetry_Int_Tables_number   1
_chemical_formula_structural   H5C21
_chemical_formula_sum   'H20 C84'
_cell_volume   4441.74167357
_cell_formula_units_Z   4
loop_
 _symmetry_equiv_pos_site_id
 _symmetry_equiv_pos_as_xyz
  1  'x, y, z'
loop_
 _atom_site_type_symbol
 _atom_site_label
 _atom_site_symmetry_multiplicity
 _atom_site_fract_x
 _atom_site_fract_y
 _atom_site_fract_z
 _atom_site_occupancy
  C  C0  1  0.49999900  0.18886548  0.57051007  1
  C  C1  1  0.49999920  0.19698545  0.73251269  1
  C  C2  1  0.50000057  0.20179620  0.89669992  1
  C  C3  1  0.49999894  0.21640250  0.64562648  1
  C  C4  1  0.49999975  0.22284720  0.81109813  1
  C  C5  1  0.50000186  0.22727623  0.97461359  1
  C  C6  1  0.49999907  0.26553174  0.64106864  1
  C  C7  1  0.49999983  0.27111130  0.80563748  1
  C  C8  1  0.50000194  0.27403420  0.96938697  1
  C  C9  1  0.49999867  0.28771766  0.55843982  1
  C  C10  1  0.49999949  0.29284164  0.71925684  1
  C  C11  1  0.50000063  0.29649128  0.88573292  1
  C  C12  1  0.49999870  0.33368265  0.55203644  1
  C  C13  1  0.49999972  0.34134143  0.71224134  1
  C  C14  1  0.50000043  0.34506819  0.87839070  1
  C  C15  1  0.49999944  0.36372662  0.62647043  1
  C  C16  1  0.50000012  0.36725400  0.79313014  1
  C  C17  1  0.50000029  0.37078284  0.95592291  1
  C  C18  1  0.49999986  0.41919326  0.12226799  1
  C  C19  1  0.50000002  0.41930714  0.28776384  1
  C  C20  1  0.50000050  0.41965221  0.45182689  1
  C  C21  1  0.49999986  0.41317252  0.62155670  1
  C  C22  1  0.50000001  0.41518791  0.78940013  1
  C  C23  1  0.50000007  0.41726308  0.95513001  1
  C  C24  1  0.49999994  0.44139553  0.03996420  1
  C  C25  1  0.49999986  0.44204848  0.20525336  1
  C  C26  1  0.50000011  0.44272352  0.36980748  1
  C  C27  1  0.50000006  0.43902246  0.53726931  1
  C  C28  1  0.49999995  0.43822333  0.70374178  1
  C  C29  1  0.50000004  0.44036088  0.87127210  1
  C  C30  1  0.49999994  0.48928189  0.03813451  1
  C  C31  1  0.49999987  0.49001516  0.20475117  1
  C  C32  1  0.49999992  0.49026036  0.37087409  1
  C  C33  1  0.49999995  0.48772470  0.53842686  1
  C  C34  1  0.50000002  0.48703282  0.70419478  1
  C  C35  1  0.50000001  0.48840151  0.87082491  1
  C  C36  1  0.49999991  0.51316543  0.12117907  1
  C  C37  1  0.49999989  0.51362818  0.28784608  1
  C  C38  1  0.49999998  0.51244492  0.45535697  1
  C  C39  1  0.49999999  0.51154981  0.62147007  1
  C  C40  1  0.50000003  0.51170521  0.78713962  1
  C  C41  1  0.49999998  0.51252466  0.95412400  1
  C  C42  1  0.49999995  0.56090541  0.12080205  1
  C  C43  1  0.49999995  0.56107153  0.28800251  1
  C  C44  1  0.50000001  0.56036778  0.45526497  1
  C  C45  1  0.50000003  0.55992831  0.62156044  1
  C  C46  1  0.50000003  0.56003604  0.78744607  1
  C  C47  1  0.49999998  0.56046878  0.95391099  1
  C  C48  1  0.49999997  0.58438654  0.03716922  1
  C  C49  1  0.49999996  0.58428368  0.20438099  1
  C  C50  1  0.49999999  0.58417192  0.37181590  1
  C  C51  1  0.50000003  0.58403461  0.53847615  1
  C  C52  1  0.50000003  0.58415201  0.70460802  1
  C  C53  1  0.50000000  0.58423570  0.87059275  1
  C  C54  1  0.49999998  0.63226404  0.03730440  1
  C  C55  1  0.49999999  0.63179748  0.20453024  1
  C  C56  1  0.50000002  0.63198423  0.37157023  1
  C  C57  1  0.50000004  0.63204127  0.53811687  1
  C  C58  1  0.50000001  0.63248627  0.70484226  1
  C  C59  1  0.49999996  0.63244642  0.87095268  1
  C  C60  1  0.49999999  0.65516258  0.12133777  1
  C  C61  1  0.50000003  0.65521374  0.28788854  1
  C  C62  1  0.50000005  0.65574342  0.45468209  1
  C  C63  1  0.50000002  0.65590604  0.62118051  1
  C  C64  1  0.49999996  0.65676232  0.78827974  1
  C  C65  1  0.49999995  0.65638711  0.95398250  1
  C  C66  1  0.49999998  0.70299591  0.12205595  1
  C  C67  1  0.50000005  0.70324464  0.28738752  1
  C  C68  1  0.50000010  0.70387666  0.45335562  1
  C  C69  1  0.50000004  0.70398909  0.62074419  1
  C  C70  1  0.49999992  0.70533262  0.78916220  1
  C  C71  1  0.49999991  0.70484501  0.95509822  1
  C  C72  1  0.49999993  0.72579181  0.03929371  1
  C  C73  1  0.50000002  0.72607287  0.20460905  1
  C  C74  1  0.50000007  0.72606362  0.37045258  1
  C  C75  1  0.50000015  0.72799257  0.53750205  1
  C  C76  1  0.49999998  0.72776837  0.70361340  1
  C  C77  1  0.49999988  0.73002940  0.87192006  1
  C  C78  1  0.50000027  0.77559418  0.53849837  1
  C  C79  1  0.49999997  0.77568619  0.70152647  1
  C  C80  1  0.49999980  0.77969411  0.86869100  1
  C  C81  1  0.50000017  0.79881210  0.61776260  1
  C  C82  1  0.49999979  0.79943272  0.78127877  1
  C  C83  1  0.49999983  0.81257683  0.93563711  1
  H  H84  1  0.49999910  0.15249058  0.57988889  1
  H  H85  1  0.49999937  0.16040194  0.73837259  1
  H  H86  1  0.50000049  0.16514534  0.89943650  1
  H  H87  1  0.50000022  0.83549071  0.61816330  1
  H  H88  1  0.49999974  0.83606292  0.77709365  1
  H  H89  1  0.49999979  0.84739069  0.91225509  1
  H  H90  1  0.49999938  0.20108862  0.50116871  1
  H  H91  1  0.49999824  0.26867522  0.49558821  1
  H  H92  1  0.49999811  0.34426593  0.48305327  1
  H  H93  1  0.49999981  0.38268626  0.12565965  1
  H  H94  1  0.50000004  0.38259189  0.28853129  1
  H  H95  1  0.50000142  0.38420727  0.44219938  1
  H  H96  1  0.49999996  0.76172681  0.04362837  1
  H  H97  1  0.49999999  0.76278286  0.20435031  1
  H  H98  1  0.50000005  0.76258646  0.36762669  1
  H  H99  1  0.50000042  0.79440221  0.47547816  1
  H  H100  1  0.50000299  0.21098808  0.04066400  1
  H  H101  1  0.50000350  0.29276765  0.03251829  1
  H  H102  1  0.50000024  0.35365016  0.02034877  1
  H  H103  1  0.49999993  0.80931007  0.00833666  1
