# generated using pymatgen
data_H7C51
_symmetry_space_group_name_H-M   'P 1'
_cell_length_a   10.00000000
_cell_length_b   29.89204000
_cell_length_c   14.82185739
_cell_angle_alpha   90.00000000
_cell_angle_beta   90.00000000
_cell_angle_gamma   90.00000000
_symmetry_Int_Tables_number   1
_chemical_formula_structural   H7C51
_chemical_formula_sum   'H14 C102'
_cell_volume   4430.55554062
_cell_formula_units_Z   2
loop_
 _symmetry_equiv_pos_site_id
 _symmetry_equiv_pos_as_xyz
  1  'x, y, z'
loop_
 _atom_site_type_symbol
 _atom_site_label
 _atom_site_symmetry_multiplicity
 _atom_site_fract_x
 _atom_site_fract_y
 _atom_site_fract_z
 _atom_site_occupancy
  C  C0  1  0.50000000  0.20156000  0.04181069  1
  C  C1  1  0.50000000  0.20156384  0.20850143  1
  C  C2  1  0.50000000  0.20159770  0.37521228  1
  C  C3  1  0.50000000  0.20162366  0.54187120  1
  C  C4  1  0.50000000  0.20162382  0.70851164  1
  C  C5  1  0.50000000  0.20159645  0.87515471  1
  C  C6  1  0.50000000  0.22437154  0.12516944  1
  C  C7  1  0.50000000  0.22437151  0.29186417  1
  C  C8  1  0.50000000  0.22440874  0.45855066  1
  C  C9  1  0.50000000  0.22442416  0.62520827  1
  C  C10  1  0.50000000  0.22441742  0.79186001  1
  C  C11  1  0.50000000  0.22439703  0.95851226  1
  C  C12  1  0.50000000  0.27277313  0.12524723  1
  C  C13  1  0.50000000  0.27275656  0.29195842  1
  C  C14  1  0.50000000  0.27277940  0.45864950  1
  C  C15  1  0.50000000  0.27279938  0.62530678  1
  C  C16  1  0.50000000  0.27280333  0.79194175  1
  C  C17  1  0.50000000  0.27279834  0.95857949  1
  C  C18  1  0.50000000  0.29649137  0.04194182  1
  C  C19  1  0.50000000  0.29645267  0.20864093  1
  C  C20  1  0.50000000  0.29644915  0.37533898  1
  C  C21  1  0.50000000  0.29647631  0.54201557  1
  C  C22  1  0.50000000  0.29649924  0.70865313  1
  C  C23  1  0.50000000  0.29650563  0.87528131  1
  C  C24  1  0.50000000  0.34442915  0.04204189  1
  C  C25  1  0.50000000  0.34438593  0.20876375  1
  C  C26  1  0.50000000  0.34438299  0.37548406  1
  C  C27  1  0.50000000  0.34440585  0.54216648  1
  C  C28  1  0.50000000  0.34443859  0.70877510  1
  C  C29  1  0.50000000  0.34445120  0.87537651  1
  C  C30  1  0.50000000  0.36816771  0.12544414  1
  C  C31  1  0.50000000  0.36814683  0.29216916  1
  C  C32  1  0.50000000  0.36816618  0.45887832  1
  C  C33  1  0.50000000  0.36821784  0.62551364  1
  C  C34  1  0.50000000  0.36825130  0.79210392  1
  C  C35  1  0.50000000  0.36822433  0.95872890  1
  C  C36  1  0.50000000  0.41599503  0.12552395  1
  C  C37  1  0.50000000  0.41596907  0.29230604  1
  C  C38  1  0.50000000  0.41600531  0.45907412  1
  C  C39  1  0.50000000  0.41608958  0.62571165  1
  C  C40  1  0.50000000  0.41611901  0.79224573  1
  C  C41  1  0.50000000  0.41606746  0.95880839  1
  C  C42  1  0.50000000  0.43981615  0.04219092  1
  C  C43  1  0.50000000  0.43974392  0.20893890  1
  C  C44  1  0.50000000  0.43973859  0.37575170  1
  C  C45  1  0.50000000  0.43988861  0.54245209  1
  C  C46  1  0.50000000  0.43998861  0.70901940  1
  C  C47  1  0.50000000  0.43994229  0.87556002  1
  C  C48  1  0.50000000  0.48761263  0.04220912  1
  C  C49  1  0.50000000  0.48751250  0.20901726  1
  C  C50  1  0.50000000  0.48751577  0.37596058  1
  C  C51  1  0.50000000  0.48773089  0.54269878  1
  C  C52  1  0.50000000  0.48787956  0.70920225  1
  C  C53  1  0.50000000  0.48780778  0.87563038  1
  C  C54  1  0.50000000  0.51128673  0.12561233  1
  C  C55  1  0.50000001  0.51117129  0.29259302  1
  C  C56  1  0.50000000  0.51140866  0.45933079  1
  C  C57  1  0.50000000  0.51173961  0.62601114  1
  C  C58  1  0.50000000  0.51179357  0.79249546  1
  C  C59  1  0.50000000  0.51155041  0.95896498  1
  C  C60  1  0.50000000  0.55905004  0.12566121  1
  C  C61  1  0.50000000  0.55887093  0.29283078  1
  C  C62  1  0.50000000  0.55918958  0.45953774  1
  C  C63  1  0.50000000  0.55967988  0.62631190  1
  C  C64  1  0.50000000  0.55972617  0.79272947  1
  C  C65  1  0.50000000  0.55940568  0.95903252  1
  C  C66  1  0.50000001  0.58303877  0.04239753  1
  C  C67  1  0.50000001  0.58241505  0.20937071  1
  C  C68  1  0.50000000  0.58271649  0.37614965  1
  C  C69  1  0.50000000  0.58323261  0.54276615  1
  C  C70  1  0.50000000  0.58374649  0.70966379  1
  C  C71  1  0.50000000  0.58356471  0.87604572  1
  C  C72  1  0.50000001  0.63094053  0.04255998  1
  C  C73  1  0.50000001  0.63004394  0.20960639  1
  C  C74  1  0.50000000  0.63054649  0.37618425  1
  C  C75  1  0.50000000  0.63106121  0.54268667  1
  C  C76  1  0.50000000  0.63180249  0.70987968  1
  C  C77  1  0.50000000  0.63165111  0.87631600  1
  C  C78  1  0.50000001  0.65368538  0.12662299  1
  C  C79  1  0.50000001  0.65375202  0.29271413  1
  C  C80  1  0.49999999  0.65461303  0.45920002  1
  C  C81  1  0.50000000  0.65497889  0.62596190  1
  C  C82  1  0.50000000  0.65594578  0.79348154  1
  C  C83  1  0.50000000  0.65535518  0.95947533  1
  C  C84  1  0.50000000  0.70154205  0.12735420  1
  C  C85  1  0.50000001  0.70178586  0.29240801  1
  C  C86  1  0.49999999  0.70271772  0.45804238  1
  C  C87  1  0.50000000  0.70294120  0.62565461  1
  C  C88  1  0.49999999  0.70433686  0.79445389  1
  C  C89  1  0.49999999  0.70370819  0.96061868  1
  C  C90  1  0.49999999  0.72464293  0.04492275  1
  C  C91  1  0.50000001  0.72465194  0.20979262  1
  C  C92  1  0.50000000  0.72487928  0.37519770  1
  C  C93  1  0.49999999  0.72690690  0.54227580  1
  C  C94  1  0.50000000  0.72670697  0.70872559  1
  C  C95  1  0.49999999  0.72897239  0.87739127  1
  C  C96  1  0.50000000  0.77446863  0.54331073  1
  C  C97  1  0.50000000  0.77457669  0.70680252  1
  C  C98  1  0.49999999  0.77856841  0.87445355  1
  C  C99  1  0.50000001  0.79766730  0.62281148  1
  C  C100  1  0.49999999  0.79829814  0.78686321  1
  C  C101  1  0.50000000  0.81146300  0.94159398  1
  H  H102  1  0.50000000  0.16485405  0.04170991  1
  H  H103  1  0.50000000  0.16486529  0.20843976  1
  H  H104  1  0.50000000  0.16491084  0.37521266  1
  H  H105  1  0.50000000  0.16493978  0.54183374  1
  H  H106  1  0.50000000  0.16493631  0.70845127  1
  H  H107  1  0.50000000  0.16489879  0.87500778  1
  H  H108  1  0.50000003  0.83435386  0.62342482  1
  H  H109  1  0.49999998  0.83493348  0.78300955  1
  H  H110  1  0.49999996  0.84626553  0.91815431  1
  H  H111  1  0.49999997  0.76057209  0.04974880  1
  H  H112  1  0.50000001  0.76133548  0.20977512  1
  H  H113  1  0.50000001  0.76140307  0.37224433  1
  H  H114  1  0.49999999  0.79322850  0.48008190  1
  H  H115  1  0.50000001  0.80838260  0.01451053  1
