# generated using pymatgen
data_H13C33
_symmetry_space_group_name_H-M   'P 1'
_cell_length_a   10.00000000
_cell_length_b   29.89204000
_cell_length_c   14.95450024
_cell_angle_alpha   90.00000000
_cell_angle_beta   90.00000000
_cell_angle_gamma   90.00000000
_symmetry_Int_Tables_number   1
_chemical_formula_structural   H13C33
_chemical_formula_sum   'H26 C66'
_cell_volume   4470.20519419
_cell_formula_units_Z   2
loop_
 _symmetry_equiv_pos_site_id
 _symmetry_equiv_pos_as_xyz
  1  'x, y, z'
loop_
 _atom_site_type_symbol
 _atom_site_label
 _atom_site_symmetry_multiplicity
 _atom_site_fract_x
 _atom_site_fract_y
 _atom_site_fract_z
 _atom_site_occupancy
  C  C0  1  0.49999980  0.19128887  0.56637841  1
  C  C1  1  0.49999995  0.19809577  0.72812779  1
  C  C2  1  0.50000011  0.20134330  0.89241519  1
  C  C3  1  0.49999985  0.21812801  0.64200497  1
  C  C4  1  0.50000004  0.22290524  0.80785841  1
  C  C5  1  0.50000016  0.22639488  0.97055618  1
  C  C6  1  0.49999995  0.26734784  0.63836212  1
  C  C7  1  0.50000008  0.27109829  0.80430733  1
  C  C8  1  0.50000016  0.27323460  0.96716496  1
  C  C9  1  0.49999997  0.29039972  0.55637915  1
  C  C10  1  0.50000014  0.29290104  0.71883944  1
  C  C11  1  0.50000016  0.29634071  0.88483949  1
  C  C12  1  0.50000048  0.33666456  0.55275613  1
  C  C13  1  0.50000054  0.34083210  0.71513349  1
  C  C14  1  0.50000023  0.34508377  0.88017200  1
  C  C15  1  0.50000103  0.36285104  0.63135460  1
  C  C16  1  0.50000046  0.36708354  0.79576139  1
  C  C17  1  0.50000015  0.37171394  0.95797511  1
  C  C18  1  0.50000123  0.41130215  0.62827048  1
  C  C19  1  0.50000063  0.41520652  0.79108417  1
  C  C20  1  0.50000017  0.41781786  0.95328633  1
  C  C21  1  0.49999786  0.43398806  0.54673880  1
  C  C22  1  0.50000090  0.43807556  0.70628695  1
  C  C23  1  0.50000040  0.44062188  0.87060850  1
  C  C24  1  0.49999387  0.47984236  0.54149247  1
  C  C25  1  0.50000055  0.48664131  0.70049043  1
  C  C26  1  0.50000048  0.48911520  0.86517707  1
  C  C27  1  0.49999841  0.50968845  0.61598288  1
  C  C28  1  0.50000060  0.51216012  0.78131574  1
  C  C29  1  0.50000010  0.51375580  0.94385046  1
  C  C30  1  0.49999993  0.56053648  0.11438901  1
  C  C31  1  0.50000156  0.56119402  0.28074251  1
  C  C32  1  0.50000585  0.56514584  0.44534297  1
  C  C33  1  0.50000003  0.55939812  0.61291446  1
  C  C34  1  0.50000001  0.56021287  0.77930349  1
  C  C35  1  0.50000001  0.56015114  0.94561546  1
  C  C36  1  0.49999991  0.58288380  0.03256756  1
  C  C37  1  0.50000013  0.58328017  0.19794654  1
  C  C38  1  0.50000170  0.58572996  0.36115726  1
  C  C39  1  0.50000133  0.58550159  0.52940382  1
  C  C40  1  0.50000004  0.58427240  0.69443121  1
  C  C41  1  0.49999996  0.58384254  0.86250344  1
  C  C42  1  0.49999993  0.63098410  0.03275555  1
  C  C43  1  0.49999973  0.63188023  0.19749750  1
  C  C44  1  0.49999918  0.63346174  0.36066936  1
  C  C45  1  0.49999930  0.63477193  0.52942510  1
  C  C46  1  0.50000004  0.63395055  0.69513461  1
  C  C47  1  0.49999999  0.63188699  0.86343587  1
  C  C48  1  0.49999982  0.65375872  0.11376466  1
  C  C49  1  0.49999913  0.65597745  0.27823404  1
  C  C50  1  0.49999926  0.65500395  0.44462041  1
  C  C51  1  0.49999949  0.65978778  0.61438490  1
  C  C52  1  0.50000005  0.65661225  0.78161375  1
  C  C53  1  0.49999999  0.65451035  0.94736659  1
  C  C54  1  0.49999955  0.70953736  0.62039999  1
  C  C55  1  0.49999999  0.70460917  0.78640247  1
  C  C56  1  0.50000003  0.70103756  0.94834185  1
  C  C57  1  0.49999957  0.74052491  0.54800027  1
  C  C58  1  0.49999988  0.73060593  0.70674913  1
  C  C59  1  0.50000002  0.72663939  0.87167710  1
  C  C60  1  0.49999987  0.78711274  0.55672834  1
  C  C61  1  0.50000001  0.77908824  0.71600171  1
  C  C62  1  0.50000000  0.77564489  0.88062573  1
  C  C63  1  0.50000004  0.80688820  0.63975666  1
  C  C64  1  0.50000004  0.79987683  0.79985623  1
  C  C65  1  0.49999998  0.79842992  0.96134344  1
  H  H66  1  0.49999982  0.15477895  0.57323927  1
  H  H67  1  0.49999999  0.16147297  0.73247282  1
  H  H68  1  0.50000011  0.16468885  0.89464166  1
  H  H69  1  0.50000012  0.84328817  0.64823865  1
  H  H70  1  0.50000007  0.83653976  0.80236646  1
  H  H71  1  0.50000003  0.83508399  0.96131558  1
  H  H72  1  0.49999976  0.20474233  0.49837940  1
  H  H73  1  0.49999965  0.27159182  0.49365864  1
  H  H74  1  0.50000043  0.35265677  0.48705526  1
  H  H75  1  0.49999606  0.41555120  0.48366113  1
  H  H76  1  0.49998318  0.48965699  0.47255330  1
  H  H77  1  0.50000008  0.52394528  0.11750756  1
  H  H78  1  0.50000187  0.52447086  0.28332017  1
  H  H79  1  0.50001677  0.52969578  0.43916187  1
  H  H80  1  0.49999979  0.69027492  0.11584136  1
  H  H81  1  0.49999891  0.69269795  0.27601305  1
  H  H82  1  0.49999985  0.69064657  0.43751506  1
  H  H83  1  0.49999925  0.73077235  0.47886985  1
  H  H84  1  0.49999988  0.80749318  0.49582712  1
  H  H85  1  0.50000020  0.20959916  0.03567210  1
  H  H86  1  0.50000018  0.29192473  0.03003557  1
  H  H87  1  0.50000011  0.35612327  0.02408358  1
  H  H88  1  0.50000010  0.43635510  0.01616500  1
  H  H89  1  0.49999993  0.49603064  0.00724158  1
  H  H90  1  0.50000004  0.71835630  0.01220904  1
  H  H91  1  0.49999994  0.78220080  0.02688149  1
