# generated using pymatgen
data_HC3
_symmetry_space_group_name_H-M   'P 1'
_cell_length_a   10.00000000
_cell_length_b   29.89204000
_cell_length_c   14.91280301
_cell_angle_alpha   90.00000000
_cell_angle_beta   90.00000000
_cell_angle_gamma   90.00000000
_symmetry_Int_Tables_number   1
_chemical_formula_structural   HC3
_chemical_formula_sum   'H24 C72'
_cell_volume   4457.74103946
_cell_formula_units_Z   24
loop_
 _symmetry_equiv_pos_site_id
 _symmetry_equiv_pos_as_xyz
  1  'x, y, z'
loop_
 _atom_site_type_symbol
 _atom_site_label
 _atom_site_symmetry_multiplicity
 _atom_site_fract_x
 _atom_site_fract_y
 _atom_site_fract_z
 _atom_site_occupancy
  C  C0  1  0.49999906  0.20150173  0.52218698  1
  C  C1  1  0.49999917  0.20026614  0.68430610  1
  C  C2  1  0.49999801  0.19368840  0.84493192  1
  C  C3  1  0.49999908  0.22426159  0.60311201  1
  C  C4  1  0.49999862  0.22128556  0.76821001  1
  C  C5  1  0.50000311  0.21370389  0.92798419  1
  C  C6  1  0.49999896  0.27322810  0.61171522  1
  C  C7  1  0.49999914  0.26979541  0.77706103  1
  C  C8  1  0.50000801  0.26026984  0.93643294  1
  C  C9  1  0.49999948  0.29883532  0.53507262  1
  C  C10  1  0.49999894  0.29550824  0.69684782  1
  C  C11  1  0.50000204  0.29106367  0.86341254  1
  C  C12  1  0.49999304  0.34602136  0.03853083  1
  C  C13  1  0.49999767  0.34499074  0.20320537  1
  C  C14  1  0.49999947  0.34608094  0.36960593  1
  C  C15  1  0.49999924  0.34539648  0.53609989  1
  C  C16  1  0.49999956  0.34346366  0.70091694  1
  C  C17  1  0.50000024  0.34068656  0.86863554  1
  C  C18  1  0.49999748  0.36853506  0.12123678  1
  C  C19  1  0.49999879  0.36779467  0.28553840  1
  C  C20  1  0.49999918  0.36890109  0.45124914  1
  C  C21  1  0.49999900  0.36870656  0.61934993  1
  C  C22  1  0.49999998  0.36602230  0.78676239  1
  C  C23  1  0.49999860  0.36587721  0.95342631  1
  C  C24  1  0.50000044  0.41620611  0.12043529  1
  C  C25  1  0.49999883  0.41571116  0.28561862  1
  C  C26  1  0.49999867  0.41684728  0.45293891  1
  C  C27  1  0.49999868  0.41700864  0.61976584  1
  C  C28  1  0.50000017  0.41502972  0.78615586  1
  C  C29  1  0.50000095  0.41456893  0.95250768  1
  C  C30  1  0.50000068  0.43856404  0.03624377  1
  C  C31  1  0.50000030  0.43946107  0.20321448  1
  C  C32  1  0.49999875  0.43896719  0.36843469  1
  C  C33  1  0.49999848  0.44093316  0.53652623  1
  C  C34  1  0.49999993  0.44033392  0.70311466  1
  C  C35  1  0.50000088  0.43857466  0.86933233  1
  C  C36  1  0.50000033  0.48655271  0.03793998  1
  C  C37  1  0.50000091  0.48737057  0.20356348  1
  C  C38  1  0.50000366  0.48657813  0.36779390  1
  C  C39  1  0.50000257  0.48959411  0.53578549  1
  C  C40  1  0.50000021  0.48927871  0.70266763  1
  C  C41  1  0.50000068  0.48686426  0.86973817  1
  C  C42  1  0.50000026  0.50925707  0.11964690  1
  C  C43  1  0.50000336  0.51012491  0.28589237  1
  C  C44  1  0.50001150  0.50916855  0.45035009  1
  C  C45  1  0.50000011  0.51466267  0.62097595  1
  C  C46  1  0.50000051  0.51218294  0.78819036  1
  C  C47  1  0.50000044  0.51023430  0.95302021  1
  C  C48  1  0.49999713  0.56398759  0.62656397  1
  C  C49  1  0.50000161  0.56015969  0.79214618  1
  C  C50  1  0.50000034  0.55673916  0.95393844  1
  C  C51  1  0.49998782  0.59401247  0.55247522  1
  C  C52  1  0.50000130  0.58627281  0.71201900  1
  C  C53  1  0.50000140  0.58250110  0.87688011  1
  C  C54  1  0.49999443  0.63982944  0.55892038  1
  C  C55  1  0.50000176  0.63477989  0.71922402  1
  C  C56  1  0.50000155  0.63099756  0.88422095  1
  C  C57  1  0.50000149  0.66194177  0.64144101  1
  C  C58  1  0.50000162  0.65693635  0.80512972  1
  C  C59  1  0.50000175  0.65323803  0.96781209  1
  C  C60  1  0.50000101  0.71047037  0.64581929  1
  C  C61  1  0.50000120  0.70499316  0.81116314  1
  C  C62  1  0.50000165  0.69942973  0.97368386  1
  C  C63  1  0.49999934  0.73745591  0.56805167  1
  C  C64  1  0.50000077  0.73142410  0.73091654  1
  C  C65  1  0.50000121  0.72642699  0.89650191  1
  C  C66  1  0.49999840  0.78425904  0.57378866  1
  C  C67  1  0.50000004  0.77950573  0.73689207  1
  C  C68  1  0.50000102  0.77558310  0.90290803  1
  C  C69  1  0.49999907  0.80522488  0.65683506  1
  C  C70  1  0.50000043  0.80009063  0.82136600  1
  C  C71  1  0.50000150  0.79856189  0.98361531  1
  H  H72  1  0.49999926  0.16484808  0.52226371  1
  H  H73  1  0.49999972  0.16360061  0.68230941  1
  H  H74  1  0.49999650  0.15728570  0.83674462  1
  H  H75  1  0.49999869  0.84181288  0.66221458  1
  H  H76  1  0.50000042  0.83674150  0.82455001  1
  H  H77  1  0.50000147  0.83522317  0.98303610  1
  H  H78  1  0.49999910  0.21788942  0.45665714  1
  H  H79  1  0.49999985  0.28151841  0.47105531  1
  H  H80  1  0.49998037  0.31046746  0.04747402  1
  H  H81  1  0.49999781  0.30824861  0.20263877  1
  H  H82  1  0.50000003  0.30957213  0.36780717  1
  H  H83  1  0.50000012  0.54577193  0.12196342  1
  H  H84  1  0.50000381  0.54686315  0.28664360  1
  H  H85  1  0.50003194  0.54459709  0.44020919  1
  H  H86  1  0.49996762  0.58345937  0.48386000  1
  H  H87  1  0.49999026  0.65879906  0.49635029  1
  H  H88  1  0.49999865  0.72209550  0.50155163  1
  H  H89  1  0.49999710  0.80418244  0.51204418  1
  H  H90  1  0.50000508  0.19343368  -0.01081513  1
  H  H91  1  0.50002191  0.27029605  0.00558270  1
  H  H92  1  0.49999956  0.57373475  0.01827371  1
  H  H93  1  0.50000195  0.63428511  0.03046373  1
  H  H94  1  0.50000193  0.71501755  0.04007275  1
  H  H95  1  0.50000182  0.78208313  0.04905271  1
