# generated using pymatgen
data_H11C39
_symmetry_space_group_name_H-M   'P 1'
_cell_length_a   10.00000000
_cell_length_b   29.89204000
_cell_length_c   14.83362787
_cell_angle_alpha   90.00000000
_cell_angle_beta   90.00000000
_cell_angle_gamma   90.00000000
_symmetry_Int_Tables_number   1
_chemical_formula_structural   H11C39
_chemical_formula_sum   'H22 C78'
_cell_volume   4434.07397614
_cell_formula_units_Z   2
loop_
 _symmetry_equiv_pos_site_id
 _symmetry_equiv_pos_as_xyz
  1  'x, y, z'
loop_
 _atom_site_type_symbol
 _atom_site_label
 _atom_site_symmetry_multiplicity
 _atom_site_fract_x
 _atom_site_fract_y
 _atom_site_fract_z
 _atom_site_occupancy
  C  C0  1  0.49999492  0.18897680  0.58012952  1
  C  C1  1  0.49999988  0.19754742  0.74232177  1
  C  C2  1  0.50000425  0.20223063  0.90781982  1
  C  C3  1  0.49999731  0.21684763  0.65480809  1
  C  C4  1  0.50000235  0.22303257  0.82178548  1
  C  C5  1  0.50000637  0.22795814  0.98564190  1
  C  C6  1  0.49999725  0.26601504  0.64911761  1
  C  C7  1  0.50000259  0.27119172  0.81628918  1
  C  C8  1  0.50000666  0.27474242  0.98042436  1
  C  C9  1  0.49999313  0.28836543  0.56562682  1
  C  C10  1  0.50000030  0.29231632  0.72931746  1
  C  C11  1  0.50000455  0.29713372  0.89657696  1
  C  C12  1  0.49999356  0.33460188  0.56033808  1
  C  C13  1  0.50000081  0.34024376  0.72376530  1
  C  C14  1  0.50000382  0.34582245  0.89002693  1
  C  C15  1  0.49999854  0.36160349  0.63847300  1
  C  C16  1  0.50000255  0.36714138  0.80420723  1
  C  C17  1  0.50000391  0.37299641  0.96765001  1
  C  C18  1  0.49999962  0.41012441  0.63347950  1
  C  C19  1  0.50000212  0.41523698  0.79806032  1
  C  C20  1  0.50000314  0.41906692  0.96177849  1
  C  C21  1  0.49999378  0.43233009  0.55039013  1
  C  C22  1  0.50000109  0.43736691  0.71164602  1
  C  C23  1  0.50000242  0.44124700  0.87767410  1
  C  C24  1  0.49998886  0.47821514  0.54403379  1
  C  C25  1  0.50000084  0.48582332  0.70462140  1
  C  C26  1  0.50000194  0.48969794  0.87072640  1
  C  C27  1  0.49999699  0.50820087  0.61868448  1
  C  C28  1  0.50000164  0.51186751  0.78541477  1
  C  C29  1  0.50000111  0.51545753  0.94849227  1
  C  C30  1  0.49999974  0.56426510  0.11453249  1
  C  C31  1  0.50000229  0.56458373  0.27946298  1
  C  C32  1  0.50000909  0.56437283  0.44328527  1
  C  C33  1  0.49999980  0.55755621  0.61357495  1
  C  C34  1  0.50000057  0.55973274  0.78147858  1
  C  C35  1  0.50000052  0.56194009  0.94755709  1
  C  C36  1  0.49999997  0.58630368  0.03227994  1
  C  C37  1  0.49999994  0.58740904  0.19722502  1
  C  C38  1  0.50000293  0.58786065  0.36153330  1
  C  C39  1  0.50000193  0.58344019  0.52899250  1
  C  C40  1  0.50000022  0.58258667  0.69570389  1
  C  C41  1  0.50000047  0.58487154  0.86353734  1
  C  C42  1  0.49999996  0.63425783  0.03057055  1
  C  C43  1  0.49999942  0.63542836  0.19679731  1
  C  C44  1  0.49999906  0.63545440  0.36255021  1
  C  C45  1  0.49999887  0.63221887  0.53006618  1
  C  C46  1  0.50000012  0.63129153  0.69609911  1
  C  C47  1  0.50000030  0.63285404  0.86313558  1
  C  C48  1  0.49999967  0.65852064  0.11327163  1
  C  C49  1  0.49999887  0.65911601  0.27969443  1
  C  C50  1  0.49999904  0.65730522  0.44729117  1
  C  C51  1  0.49999905  0.65572453  0.61332490  1
  C  C52  1  0.50000024  0.65578711  0.77922047  1
  C  C53  1  0.50000015  0.65712125  0.94640214  1
  C  C54  1  0.49999982  0.70646907  0.11309277  1
  C  C55  1  0.49999926  0.70683045  0.27981657  1
  C  C56  1  0.49999929  0.70538048  0.44718976  1
  C  C57  1  0.49999923  0.70407324  0.61333912  1
  C  C58  1  0.50000000  0.70404269  0.77944291  1
  C  C59  1  0.50000014  0.70511880  0.94629798  1
  C  C60  1  0.50000010  0.72944619  0.02928975  1
  C  C61  1  0.49999978  0.73029922  0.19632889  1
  C  C62  1  0.49999950  0.72959587  0.36394631  1
  C  C63  1  0.49999935  0.72844296  0.53064356  1
  C  C64  1  0.49999971  0.72777567  0.69643681  1
  C  C65  1  0.50000010  0.72814316  0.86252558  1
  C  C66  1  0.50000026  0.77786541  0.02923253  1
  C  C67  1  0.50000015  0.77865149  0.19636325  1
  C  C68  1  0.49999980  0.77803533  0.36383697  1
  C  C69  1  0.49999952  0.77689348  0.53055028  1
  C  C70  1  0.49999981  0.77625307  0.69650984  1
  C  C71  1  0.50000014  0.77659978  0.86256616  1
  C  C72  1  0.50000033  0.80105448  0.11246876  1
  C  C73  1  0.50000008  0.80109086  0.28033922  1
  C  C74  1  0.49999967  0.80023860  0.44774690  1
  C  C75  1  0.49999957  0.79940937  0.61382894  1
  C  C76  1  0.50000004  0.79923160  0.77937265  1
  C  C77  1  0.50000028  0.79999713  0.94528766  1
  H  H78  1  0.49999462  0.15264790  0.59003477  1
  H  H79  1  0.49999978  0.16093778  0.74782191  1
  H  H80  1  0.50000380  0.16561539  0.91163970  1
  H  H81  1  0.50000041  0.83775748  0.11155599  1
  H  H82  1  0.50000016  0.83781356  0.28095657  1
  H  H83  1  0.49999969  0.83692486  0.44916221  1
  H  H84  1  0.49999948  0.83608622  0.61466097  1
  H  H85  1  0.50000012  0.83592187  0.77893717  1
  H  H86  1  0.50000037  0.83668834  0.94377901  1
  H  H87  1  0.49999344  0.20104779  0.51057230  1
  H  H88  1  0.49998915  0.26916896  0.50283222  1
  H  H89  1  0.49998929  0.34998324  0.49353638  1
  H  H90  1  0.49999054  0.41341012  0.48735807  1
  H  H91  1  0.49997233  0.48901630  0.47504779  1
  H  H92  1  0.49999996  0.52777452  0.11849752  1
  H  H93  1  0.50000278  0.52789578  0.27973533  1
  H  H94  1  0.50002453  0.52896407  0.43250812  1
  H  H95  1  0.50000767  0.21176112  0.05191053  1
  H  H96  1  0.50000850  0.29370021  0.04343203  1
  H  H97  1  0.50000440  0.35772074  0.03454946  1
  H  H98  1  0.50000355  0.43785931  0.02496720  1
  H  H99  1  0.50000095  0.49843901  0.01314334  1
