# generated using pymatgen
data_H5C12
_symmetry_space_group_name_H-M   'P 1'
_cell_length_a   10.00000000
_cell_length_b   21.36688000
_cell_length_c   14.95885753
_cell_angle_alpha   90.00000000
_cell_angle_beta   90.00000000
_cell_angle_gamma   90.00000000
_symmetry_Int_Tables_number   1
_chemical_formula_structural   H5C12
_chemical_formula_sum   'H20 C48'
_cell_volume   3196.24113757
_cell_formula_units_Z   4
loop_
 _symmetry_equiv_pos_site_id
 _symmetry_equiv_pos_as_xyz
  1  'x, y, z'
loop_
 _atom_site_type_symbol
 _atom_site_label
 _atom_site_symmetry_multiplicity
 _atom_site_fract_x
 _atom_site_fract_y
 _atom_site_fract_z
 _atom_site_occupancy
  C  C0  1  0.49999744  0.76851436  0.53975537  1
  C  C1  1  0.49999759  0.76778431  0.70047384  1
  C  C2  1  0.49999896  0.77637827  0.86028620  1
  C  C3  1  0.50000241  0.23148562  0.53975600  1
  C  C4  1  0.50000240  0.23221525  0.70047401  1
  C  C5  1  0.50000112  0.22362150  0.86028585  1
  C  C6  1  0.50000258  0.26513459  0.61892922  1
  C  C7  1  0.50000157  0.26205711  0.78353237  1
  C  C8  1  0.50000067  0.25196449  0.94269857  1
  C  C9  1  0.50000192  0.33381829  0.62591395  1
  C  C10  1  0.50000135  0.32994635  0.79108969  1
  C  C11  1  0.50000040  0.31719220  0.94999364  1
  C  C12  1  0.50000128  0.36867646  0.54821235  1
  C  C13  1  0.50000141  0.36551510  0.71062272  1
  C  C14  1  0.50000071  0.36013747  0.87684021  1
  C  C15  1  0.50000044  0.43699053  0.04950845  1
  C  C16  1  0.50000038  0.43379987  0.21512556  1
  C  C17  1  0.50000020  0.43475896  0.38048723  1
  C  C18  1  0.50000047  0.43387322  0.54781542  1
  C  C19  1  0.50000066  0.43267510  0.71391674  1
  C  C20  1  0.50000042  0.42984431  0.88110338  1
  C  C21  1  0.50000021  0.46659758  0.13352252  1
  C  C22  1  0.50000016  0.46601921  0.29695017  1
  C  C23  1  0.50000011  0.46632601  0.46188164  1
  C  C24  1  0.50000030  0.46634370  0.63130959  1
  C  C25  1  0.50000028  0.46521236  0.79982109  1
  C  C26  1  0.50000021  0.46556147  0.96515723  1
  C  C27  1  0.49999978  0.53340261  0.13352257  1
  C  C28  1  0.49999984  0.53398101  0.29695018  1
  C  C29  1  0.49999988  0.53367415  0.46188167  1
  C  C30  1  0.49999968  0.53365634  0.63130952  1
  C  C31  1  0.49999971  0.53478739  0.79982109  1
  C  C32  1  0.49999980  0.53443848  0.96515727  1
  C  C33  1  0.49999954  0.56300924  0.04950843  1
  C  C34  1  0.49999961  0.56620001  0.21512554  1
  C  C35  1  0.49999980  0.56524085  0.38048720  1
  C  C36  1  0.49999952  0.56612682  0.54781531  1
  C  C37  1  0.49999931  0.56732471  0.71391682  1
  C  C38  1  0.49999960  0.57015557  0.88110351  1
  C  C39  1  0.49999871  0.63132325  0.54821241  1
  C  C40  1  0.49999856  0.63448476  0.71062261  1
  C  C41  1  0.49999934  0.63986257  0.87684054  1
  C  C42  1  0.49999803  0.66618218  0.62591383  1
  C  C43  1  0.49999867  0.67005397  0.79108968  1
  C  C44  1  0.49999969  0.68280798  0.94999354  1
  C  C45  1  0.49999735  0.73486565  0.61892923  1
  C  C46  1  0.49999845  0.73794325  0.78353227  1
  C  C47  1  0.49999947  0.74803553  0.94269847  1
  H  H48  1  0.49999762  0.81975049  0.54314643  1
  H  H49  1  0.49999746  0.81910291  0.69920309  1
  H  H50  1  0.49999894  0.82731337  0.85229434  1
  H  H51  1  0.50000223  0.18024922  0.54314675  1
  H  H52  1  0.50000256  0.18089713  0.69920303  1
  H  H53  1  0.50000116  0.17268658  0.85229432  1
  H  H54  1  0.49999845  0.74770331  0.47303835  1
  H  H55  1  0.50000129  0.25229693  0.47303819  1
  H  H56  1  0.50000124  0.34351765  0.48494414  1
  H  H57  1  0.50000089  0.38720726  0.05583092  1
  H  H58  1  0.50000079  0.38242798  0.21506036  1
  H  H59  1  0.50000026  0.38359580  0.37794376  1
  H  H60  1  0.49999906  0.61279271  0.05583092  1
  H  H61  1  0.49999920  0.61757201  0.21506039  1
  H  H62  1  0.49999972  0.61640421  0.37794374  1
  H  H63  1  0.49999878  0.65648243  0.48494419  1
  H  H64  1  0.50000056  0.22430627  0.00443149  1
  H  H65  1  0.49999974  0.33064882  0.01915946  1
  H  H66  1  0.50000045  0.66935123  0.01915985  1
  H  H67  1  0.49999960  0.77569369  0.00443162  1
