# generated using pymatgen
data_H7C27
_symmetry_space_group_name_H-M   'P 1'
_cell_length_a   10.00000000
_cell_length_b   21.36688000
_cell_length_c   14.82442523
_cell_angle_alpha   90.00000000
_cell_angle_beta   90.00000000
_cell_angle_gamma   90.00000000
_symmetry_Int_Tables_number   1
_chemical_formula_structural   H7C27
_chemical_formula_sum   'H14 C54'
_cell_volume   3167.51714965
_cell_formula_units_Z   2
loop_
 _symmetry_equiv_pos_site_id
 _symmetry_equiv_pos_as_xyz
  1  'x, y, z'
loop_
 _atom_site_type_symbol
 _atom_site_label
 _atom_site_symmetry_multiplicity
 _atom_site_fract_x
 _atom_site_fract_y
 _atom_site_fract_z
 _atom_site_occupancy
  C  C0  1  0.50000003  0.26490129  0.55885341  1
  C  C1  1  0.50000078  0.28327547  0.71355850  1
  C  C2  1  0.50000085  0.28418589  0.87753420  1
  C  C3  1  0.50000025  0.31087385  0.62589149  1
  C  C4  1  0.50000066  0.31645872  0.79348021  1
  C  C5  1  0.50000009  0.31672927  0.95695407  1
  C  C6  1  0.49999935  0.38641163  0.12485647  1
  C  C7  1  0.49999969  0.38677683  0.29012791  1
  C  C8  1  0.49999995  0.38663679  0.45485151  1
  C  C9  1  0.49999992  0.38030110  0.62256821  1
  C  C10  1  0.50000007  0.38346721  0.79131567  1
  C  C11  1  0.49999954  0.38334952  0.95784073  1
  C  C12  1  0.49999915  0.41728698  0.04197601  1
  C  C13  1  0.49999929  0.41878626  0.20758678  1
  C  C14  1  0.49999968  0.41912544  0.37249734  1
  C  C15  1  0.49999965  0.41561785  0.53924946  1
  C  C16  1  0.49999987  0.41470315  0.70547755  1
  C  C17  1  0.49999962  0.41672889  0.87436138  1
  C  C18  1  0.49999926  0.48476939  0.04072189  1
  C  C19  1  0.49999921  0.48613160  0.20717635  1
  C  C20  1  0.49999950  0.48615693  0.37313996  1
  C  C21  1  0.49999961  0.48346038  0.54022851  1
  C  C22  1  0.49999978  0.48257272  0.70636997  1
  C  C23  1  0.49999960  0.48398729  0.87397403  1
  C  C24  1  0.49999955  0.51854662  0.12362392  1
  C  C25  1  0.49999961  0.51927692  0.29013637  1
  C  C26  1  0.49999974  0.51778726  0.45722023  1
  C  C27  1  0.49999978  0.51638139  0.62351444  1
  C  C28  1  0.49999973  0.51622203  0.78996358  1
  C  C29  1  0.49999967  0.51752626  0.95711248  1
  C  C30  1  0.50000037  0.58577860  0.12353609  1
  C  C31  1  0.50000022  0.58622724  0.29026094  1
  C  C32  1  0.50000020  0.58507883  0.45721384  1
  C  C33  1  0.49999997  0.58385993  0.62362650  1
  C  C34  1  0.49999972  0.58368699  0.79001314  1
  C  C35  1  0.50000017  0.58474282  0.95693197  1
  C  C36  1  0.50000068  0.61833490  0.03999152  1
  C  C37  1  0.50000064  0.61905322  0.20678833  1
  C  C38  1  0.50000041  0.61862452  0.37399331  1
  C  C39  1  0.50000038  0.61758789  0.54069081  1
  C  C40  1  0.49999977  0.61691828  0.70686065  1
  C  C41  1  0.49999998  0.61719299  0.87321355  1
  C  C42  1  0.50000076  0.68603151  0.03980290  1
  C  C43  1  0.50000074  0.68676233  0.20678564  1
  C  C44  1  0.50000043  0.68632021  0.37401480  1
  C  C45  1  0.50000036  0.68537120  0.54067620  1
  C  C46  1  0.49999976  0.68474284  0.70690603  1
  C  C47  1  0.49999997  0.68495436  0.87314256  1
  C  C48  1  0.50000062  0.71828801  0.12303471  1
  C  C49  1  0.50000036  0.71837075  0.29055655  1
  C  C50  1  0.50000025  0.71777306  0.45765244  1
  C  C51  1  0.50000001  0.71702872  0.62398389  1
  C  C52  1  0.49999971  0.71677550  0.78994151  1
  C  C53  1  0.50000026  0.71739122  0.95609642  1
  H  H54  1  0.50000031  0.21623188  0.58234642  1
  H  H55  1  0.50000071  0.23205263  0.71748764  1
  H  H56  1  0.50000113  0.23289167  0.87715696  1
  H  H57  1  0.50000014  0.76962309  0.12243153  1
  H  H58  1  0.49999994  0.76971933  0.29085551  1
  H  H59  1  0.49999972  0.76911219  0.45839144  1
  H  H60  1  0.49999974  0.76837034  0.62438319  1
  H  H61  1  0.49999935  0.76810678  0.78970000  1
  H  H62  1  0.49999999  0.76873683  0.95518274  1
  H  H63  1  0.49999957  0.26929363  0.48596495  1
  H  H64  1  0.49999962  0.33531047  0.12811245  1
  H  H65  1  0.50000003  0.33543435  0.29038463  1
  H  H66  1  0.50000056  0.33638606  0.44944398  1
  H  H67  1  0.49999997  0.29062094  0.02028164  1
