# generated using pymatgen
data_H4C9
_symmetry_space_group_name_H-M   'P 1'
_cell_length_a   10.00000000
_cell_length_b   29.89204000
_cell_length_c   17.79238901
_cell_angle_alpha   90.00000000
_cell_angle_beta   90.00000000
_cell_angle_gamma   90.00000000
_symmetry_Int_Tables_number   1
_chemical_formula_structural   H4C9
_chemical_formula_sum   'H32 C72'
_cell_volume   5318.50803916
_cell_formula_units_Z   8
loop_
 _symmetry_equiv_pos_site_id
 _symmetry_equiv_pos_as_xyz
  1  'x, y, z'
loop_
 _atom_site_type_symbol
 _atom_site_label
 _atom_site_symmetry_multiplicity
 _atom_site_fract_x
 _atom_site_fract_y
 _atom_site_fract_z
 _atom_site_occupancy
  C  C0  1  0.49999908  0.83923383  0.55605804  1
  C  C1  1  0.49999999  0.83566341  0.69242519  1
  C  C2  1  0.50000077  0.83557914  0.83065002  1
  C  C3  1  0.49999979  0.16513335  0.12103950  1
  C  C4  1  0.50000006  0.16718024  0.25751071  1
  C  C5  1  0.50000005  0.16720841  0.39608718  1
  C  C6  1  0.49999995  0.16708111  0.53389655  1
  C  C7  1  0.49999998  0.16527124  0.67224651  1
  C  C8  1  0.50000002  0.16227061  0.81097464  1
  C  C9  1  0.50000000  0.18960455  0.18658378  1
  C  C10  1  0.50000006  0.18956969  0.32678152  1
  C  C11  1  0.49999997  0.19016720  0.46583694  1
  C  C12  1  0.49999998  0.18907799  0.60488429  1
  C  C13  1  0.50000002  0.18695459  0.74319819  1
  C  C14  1  0.50000007  0.18430001  0.87980867  1
  C  C15  1  0.50000006  0.23964247  0.18726143  1
  C  C16  1  0.50000003  0.23864965  0.32702328  1
  C  C17  1  0.49999995  0.23919881  0.46599787  1
  C  C18  1  0.49999997  0.23746560  0.60709470  1
  C  C19  1  0.50000007  0.23503602  0.74629307  1
  C  C20  1  0.50000010  0.23103866  0.88296110  1
  C  C21  1  0.50000020  0.26481914  0.12313869  1
  C  C22  1  0.50000001  0.26145148  0.25958252  1
  C  C23  1  0.49999998  0.26125310  0.39792936  1
  C  C24  1  0.49999998  0.26237027  0.53876852  1
  C  C25  1  0.50000000  0.26016611  0.67754006  1
  C  C26  1  0.50000012  0.25730456  0.81718568  1
  C  C27  1  0.49999997  0.30903209  0.54342370  1
  C  C28  1  0.49999992  0.30795172  0.68021294  1
  C  C29  1  0.50000026  0.30609091  0.81931909  1
  C  C30  1  0.49999972  0.33242621  0.61175148  1
  C  C31  1  0.50000016  0.33097422  0.75106924  1
  C  C32  1  0.50000054  0.33009494  0.88766512  1
  C  C33  1  0.49999930  0.38109522  0.61358781  1
  C  C34  1  0.50000026  0.37905255  0.75276237  1
  C  C35  1  0.50000098  0.37634034  0.88931743  1
  C  C36  1  0.49999803  0.40662782  0.54695058  1
  C  C37  1  0.49999998  0.40404943  0.68359297  1
  C  C38  1  0.50000078  0.40207908  0.82269600  1
  C  C39  1  0.49999782  0.45278231  0.54859347  1
  C  C40  1  0.49999990  0.45202639  0.68532602  1
  C  C41  1  0.50000118  0.45078522  0.82431670  1
  C  C42  1  0.49999890  0.47665243  0.61698096  1
  C  C43  1  0.50000057  0.47547530  0.75592865  1
  C  C44  1  0.50000215  0.47500621  0.89244983  1
  C  C45  1  0.49999877  0.52516150  0.61830357  1
  C  C46  1  0.50000076  0.52348244  0.75727298  1
  C  C47  1  0.50000235  0.52126034  0.89375663  1
  C  C48  1  0.49999747  0.55037973  0.55126013  1
  C  C49  1  0.49999999  0.54836048  0.68805822  1
  C  C50  1  0.50000166  0.54681992  0.82698482  1
  C  C51  1  0.49999738  0.59648296  0.55235032  1
  C  C52  1  0.50000010  0.59638207  0.68908110  1
  C  C53  1  0.50000166  0.59555902  0.82805859  1
  C  C54  1  0.49999879  0.62061026  0.62039445  1
  C  C55  1  0.50000089  0.62003888  0.75942559  1
  C  C56  1  0.50000231  0.61999790  0.89596428  1
  C  C57  1  0.49999877  0.66913515  0.62086233  1
  C  C58  1  0.50000087  0.66811833  0.76009409  1
  C  C59  1  0.50000233  0.66625853  0.89671502  1
  C  C60  1  0.49999733  0.69410907  0.55351611  1
  C  C61  1  0.50000001  0.69261123  0.69025669  1
  C  C62  1  0.50000167  0.69155925  0.82973473  1
  C  C63  1  0.49999741  0.74035776  0.55393499  1
  C  C64  1  0.49999999  0.74063414  0.69064722  1
  C  C65  1  0.50000152  0.74039520  0.83046668  1
  C  C66  1  0.49999890  0.76475072  0.62151672  1
  C  C67  1  0.50000067  0.76407921  0.76115555  1
  C  C68  1  0.50000189  0.76517792  0.89802353  1
  C  C69  1  0.49999927  0.81396988  0.62141274  1
  C  C70  1  0.50000042  0.81236424  0.76101611  1
  C  C71  1  0.50000152  0.81207343  0.89792552  1
  H  H72  1  0.49999918  0.87583907  0.55922883  1
  H  H73  1  0.50000001  0.87235804  0.69364596  1
  H  H74  1  0.50000045  0.87226736  0.83006379  1
  H  H75  1  0.49999975  0.12850489  0.12283931  1
  H  H76  1  0.50000006  0.13043992  0.25731266  1
  H  H77  1  0.50000005  0.13048752  0.39668146  1
  H  H78  1  0.49999997  0.13036045  0.53296670  1
  H  H79  1  0.49999996  0.12858930  0.67057181  1
  H  H80  1  0.50000002  0.12562925  0.80853913  1
  H  H81  1  0.49999881  0.82444642  0.49985560  1
  H  H82  1  0.50000022  0.30142535  0.12628612  1
  H  H83  1  0.50000003  0.29820763  0.26014093  1
  H  H84  1  0.49999990  0.29789202  0.39577963  1
  H  H85  1  0.50000003  0.32811351  0.49124247  1
  H  H86  1  0.49999706  0.39017227  0.49210857  1
  H  H87  1  0.49999663  0.47070025  0.49510141  1
  H  H88  1  0.49999637  0.53363463  0.49667867  1
  H  H89  1  0.49999614  0.61422225  0.49867614  1
  H  H90  1  0.49999602  0.67702400  0.49924872  1
  H  H91  1  0.49999613  0.75803599  0.50011979  1
  H  H92  1  0.49999965  0.18083398  0.06553092  1
  H  H93  1  0.50000005  0.16497247  0.93212698  1
  H  H94  1  0.50000014  0.24716892  0.93803502  1
  H  H95  1  0.50000030  0.24984725  0.06707305  1
  H  H96  1  0.50000054  0.31216627  0.94123471  1
  H  H97  1  0.50000115  0.39295674  0.94405424  1
  H  H98  1  0.50000270  0.45723024  0.94615560  1
  H  H99  1  0.50000299  0.53787631  0.94847499  1
  H  H100  1  0.50000289  0.60243299  0.94984756  1
  H  H101  1  0.50000304  0.68321063  0.95117437  1
  H  H102  1  0.50000249  0.74783564  0.95210339  1
  H  H103  1  0.50000191  0.83018523  0.95151573  1
