# generated using pymatgen
data_H11C27
_symmetry_space_group_name_H-M   'P 1'
_cell_length_a   10.00000000
_cell_length_b   25.62946000
_cell_length_c   14.91729210
_cell_angle_alpha   90.00000000
_cell_angle_beta   90.00000000
_cell_angle_gamma   90.00000000
_symmetry_Int_Tables_number   1
_chemical_formula_structural   H11C27
_chemical_formula_sum   'H22 C54'
_cell_volume   3823.22141128
_cell_formula_units_Z   2
loop_
 _symmetry_equiv_pos_site_id
 _symmetry_equiv_pos_as_xyz
  1  'x, y, z'
loop_
 _atom_site_type_symbol
 _atom_site_label
 _atom_site_symmetry_multiplicity
 _atom_site_fract_x
 _atom_site_fract_y
 _atom_site_fract_z
 _atom_site_occupancy
  C  C0  1  0.50000064  0.21971092  0.55008799  1
  C  C1  1  0.50000136  0.23559401  0.70243585  1
  C  C2  1  0.50000109  0.23544510  0.86402611  1
  C  C3  1  0.50000082  0.25872262  0.61567727  1
  C  C4  1  0.50000112  0.26327116  0.78145016  1
  C  C5  1  0.50000055  0.26140986  0.94388130  1
  C  C6  1  0.49999918  0.31686654  0.11407053  1
  C  C7  1  0.49999888  0.31587094  0.28049920  1
  C  C8  1  0.49999998  0.31963499  0.44726188  1
  C  C9  1  0.50000063  0.31694178  0.61293601  1
  C  C10  1  0.50000090  0.31925255  0.78001937  1
  C  C11  1  0.50000037  0.31692726  0.94645550  1
  C  C12  1  0.49999998  0.34357737  0.03213411  1
  C  C13  1  0.49999938  0.34260400  0.19800921  1
  C  C14  1  0.49999971  0.34333125  0.36219939  1
  C  C15  1  0.50000045  0.34594517  0.52972668  1
  C  C16  1  0.50000090  0.34613411  0.69471670  1
  C  C17  1  0.50000086  0.34557171  0.86369389  1
  C  C18  1  0.50000056  0.39997726  0.03277077  1
  C  C19  1  0.50000049  0.39925935  0.19785741  1
  C  C20  1  0.50000064  0.39924353  0.36138292  1
  C  C21  1  0.50000071  0.40327293  0.52931524  1
  C  C22  1  0.50000095  0.40366461  0.69510435  1
  C  C23  1  0.50000108  0.40176081  0.86393669  1
  C  C24  1  0.50000095  0.42570781  0.11448388  1
  C  C25  1  0.50000113  0.42620518  0.27938584  1
  C  C26  1  0.50000107  0.42574051  0.44385349  1
  C  C27  1  0.50000070  0.43316708  0.61383936  1
  C  C28  1  0.50000108  0.43039457  0.78133038  1
  C  C29  1  0.50000081  0.42827077  0.94768382  1
  C  C30  1  0.49999983  0.49095057  0.61933403  1
  C  C31  1  0.50000069  0.48642027  0.78514907  1
  C  C32  1  0.50000040  0.48252119  0.94792787  1
  C  C33  1  0.49999824  0.52598813  0.54527073  1
  C  C34  1  0.49999980  0.51695295  0.70488056  1
  C  C35  1  0.50000053  0.51228401  0.87016686  1
  C  C36  1  0.49999650  0.57957604  0.55167473  1
  C  C37  1  0.49999848  0.57357350  0.71204703  1
  C  C38  1  0.50000015  0.56890743  0.87717619  1
  C  C39  1  0.49999687  0.60539605  0.63427391  1
  C  C40  1  0.49999883  0.59927720  0.79815606  1
  C  C41  1  0.50000133  0.59482549  0.96069246  1
  C  C42  1  0.49999689  0.66212414  0.63927312  1
  C  C43  1  0.49999829  0.65539209  0.80450685  1
  C  C44  1  0.50000076  0.64864778  0.96676072  1
  C  C45  1  0.49999732  0.69381970  0.56182671  1
  C  C46  1  0.49999798  0.68642443  0.72456303  1
  C  C47  1  0.49999900  0.68030216  0.88988103  1
  C  C48  1  0.50000009  0.74836242  0.56799672  1
  C  C49  1  0.49999968  0.74256510  0.73103836  1
  C  C50  1  0.49999885  0.73763616  0.89691962  1
  C  C51  1  0.50000142  0.77267534  0.65110902  1
  C  C52  1  0.49999966  0.76650848  0.81567065  1
  C  C53  1  0.49999842  0.76374163  0.97834869  1
  H  H54  1  0.50000192  0.17937003  0.57477683  1
  H  H55  1  0.50000136  0.19286025  0.70610653  1
  H  H56  1  0.50000153  0.19271224  0.86134234  1
  H  H57  1  0.50000399  0.81534098  0.65627779  1
  H  H58  1  0.50000040  0.80927210  0.81941447  1
  H  H59  1  0.49999865  0.80648415  0.97983695  1
  H  H60  1  0.49999939  0.22200964  0.47748118  1
  H  H61  1  0.49999837  0.27422052  0.11556089  1
  H  H62  1  0.49999810  0.27304041  0.28078375  1
  H  H63  1  0.50000000  0.27768033  0.44694425  1
  H  H64  1  0.50000183  0.46833295  0.11786905  1
  H  H65  1  0.50000184  0.46904274  0.27932404  1
  H  H66  1  0.50000185  0.46713261  0.43422271  1
  H  H67  1  0.49999823  0.51344113  0.47664505  1
  H  H68  1  0.49999497  0.60172555  0.48903267  1
  H  H69  1  0.49999630  0.67620186  0.49511111  1
  H  H70  1  0.50000152  0.77179728  0.50652307  1
  H  H71  1  0.50000046  0.23898990  0.00618198  1
  H  H72  1  0.49999949  0.50259875  0.01203588  1
  H  H73  1  0.50000300  0.57274035  0.02327777  1
  H  H74  1  0.50000209  0.66656850  0.03325814  1
  H  H75  1  0.49999771  0.74377550  0.04312425  1
