# generated using pymatgen
data_H4C21
_symmetry_space_group_name_H-M   'P 1'
_cell_length_a   10.00000000
_cell_length_b   25.62946000
_cell_length_c   14.84389331
_cell_angle_alpha   90.00000000
_cell_angle_beta   90.00000000
_cell_angle_gamma   90.00000000
_symmetry_Int_Tables_number   1
_chemical_formula_structural   H4C21
_chemical_formula_sum   'H16 C84'
_cell_volume   3804.40969748
_cell_formula_units_Z   4
loop_
 _symmetry_equiv_pos_site_id
 _symmetry_equiv_pos_as_xyz
  1  'x, y, z'
loop_
 _atom_site_type_symbol
 _atom_site_label
 _atom_site_symmetry_multiplicity
 _atom_site_fract_x
 _atom_site_fract_y
 _atom_site_fract_z
 _atom_site_occupancy
  C  C0  1  0.49999886  0.82192210  0.55817926  1
  C  C1  1  0.49999835  0.80658595  0.71261201  1
  C  C2  1  0.49999907  0.80597307  0.87635185  1
  C  C3  1  0.50000123  0.17807794  0.55817920  1
  C  C4  1  0.50000173  0.19341403  0.71261201  1
  C  C5  1  0.50000088  0.19402692  0.87635184  1
  C  C6  1  0.50000159  0.21645612  0.62519334  1
  C  C7  1  0.50000153  0.22104932  0.79257598  1
  C  C8  1  0.50000038  0.22101909  0.95587546  1
  C  C9  1  0.50000053  0.27909169  0.12437003  1
  C  C10  1  0.50000028  0.27924417  0.28992952  1
  C  C11  1  0.50000035  0.27935769  0.45483767  1
  C  C12  1  0.50000122  0.27430750  0.62224551  1
  C  C13  1  0.50000104  0.27690521  0.79071481  1
  C  C14  1  0.50000038  0.27657898  0.95713020  1
  C  C15  1  0.50000033  0.30484347  0.04135021  1
  C  C16  1  0.50000045  0.30588954  0.20724963  1
  C  C17  1  0.50000019  0.30619993  0.37235993  1
  C  C18  1  0.50000067  0.30375417  0.53906629  1
  C  C19  1  0.50000092  0.30303238  0.70507081  1
  C  C20  1  0.50000048  0.30456794  0.87378382  1
  C  C21  1  0.50000017  0.36097250  0.03997857  1
  C  C22  1  0.50000029  0.36188142  0.20664435  1
  C  C23  1  0.50000020  0.36200668  0.37291263  1
  C  C24  1  0.50000037  0.36017381  0.54015218  1
  C  C25  1  0.50000039  0.35953229  0.70602381  1
  C  C26  1  0.50000015  0.36058593  0.87339877  1
  C  C27  1  0.50000016  0.38889856  0.12306537  1
  C  C28  1  0.50000019  0.38944402  0.28975814  1
  C  C29  1  0.50000016  0.38855856  0.45698907  1
  C  C30  1  0.50000026  0.38782548  0.62325203  1
  C  C31  1  0.50000013  0.38770489  0.78952611  1
  C  C32  1  0.50000002  0.38850046  0.95649328  1
  C  C33  1  0.50000003  0.44465558  0.12290865  1
  C  C34  1  0.50000007  0.44494501  0.28988543  1
  C  C35  1  0.50000004  0.44441363  0.45706310  1
  C  C36  1  0.50000004  0.44395613  0.62336613  1
  C  C37  1  0.50000003  0.44384796  0.78947488  1
  C  C38  1  0.49999996  0.44434401  0.95613246  1
  C  C39  1  0.49999998  0.47215105  0.03945177  1
  C  C40  1  0.50000003  0.47222498  0.20622729  1
  C  C41  1  0.50000002  0.47215330  0.37367509  1
  C  C42  1  0.50000002  0.47204522  0.54037573  1
  C  C43  1  0.50000002  0.47194334  0.70646758  1
  C  C44  1  0.49999998  0.47197187  0.87260685  1
  C  C45  1  0.50000002  0.52784895  0.03945177  1
  C  C46  1  0.49999995  0.52777503  0.20622729  1
  C  C47  1  0.49999998  0.52784670  0.37367510  1
  C  C48  1  0.50000001  0.52795478  0.54037572  1
  C  C49  1  0.50000000  0.52805665  0.70646759  1
  C  C50  1  0.50000001  0.52802813  0.87260687  1
  C  C51  1  0.49999996  0.55534442  0.12290865  1
  C  C52  1  0.49999991  0.55505498  0.28988544  1
  C  C53  1  0.49999997  0.55558637  0.45706311  1
  C  C54  1  0.49999998  0.55604385  0.62336615  1
  C  C55  1  0.49999997  0.55615203  0.78947490  1
  C  C56  1  0.50000003  0.55565599  0.95613246  1
  C  C57  1  0.49999984  0.61110143  0.12306537  1
  C  C58  1  0.49999978  0.61055598  0.28975815  1
  C  C59  1  0.49999983  0.61144143  0.45698908  1
  C  C60  1  0.49999975  0.61217451  0.62325205  1
  C  C61  1  0.49999987  0.61229511  0.78952612  1
  C  C62  1  0.49999998  0.61149954  0.95649329  1
  C  C63  1  0.49999984  0.63902751  0.03997859  1
  C  C64  1  0.49999969  0.63811859  0.20664434  1
  C  C65  1  0.49999977  0.63799334  0.37291264  1
  C  C66  1  0.49999963  0.63982619  0.54015218  1
  C  C67  1  0.49999962  0.64046769  0.70602382  1
  C  C68  1  0.49999984  0.63941407  0.87339878  1
  C  C69  1  0.49999966  0.69515654  0.04135022  1
  C  C70  1  0.49999950  0.69411049  0.20724962  1
  C  C71  1  0.49999978  0.69380010  0.37235995  1
  C  C72  1  0.49999934  0.69624581  0.53906630  1
  C  C73  1  0.49999910  0.69696758  0.70507082  1
  C  C74  1  0.49999950  0.69543205  0.87378384  1
  C  C75  1  0.49999943  0.72090829  0.12437003  1
  C  C76  1  0.49999968  0.72075582  0.28992953  1
  C  C77  1  0.49999967  0.72064228  0.45483768  1
  C  C78  1  0.49999883  0.72569249  0.62224551  1
  C  C79  1  0.49999895  0.72309479  0.79071481  1
  C  C80  1  0.49999960  0.72342104  0.95713022  1
  C  C81  1  0.49999852  0.78354394  0.62519332  1
  C  C82  1  0.49999846  0.77895070  0.79257599  1
  C  C83  1  0.49999957  0.77898091  0.95587544  1
  H  H84  1  0.49999875  0.86250708  0.58166159  1
  H  H85  1  0.49999878  0.84932301  0.71610514  1
  H  H86  1  0.49999921  0.84875191  0.87540724  1
  H  H87  1  0.50000139  0.13749290  0.58166152  1
  H  H88  1  0.50000133  0.15067698  0.71610513  1
  H  H89  1  0.50000072  0.15124808  0.87540729  1
  H  H90  1  0.49999920  0.81828494  0.48537952  1
  H  H91  1  0.50000064  0.18171514  0.48537942  1
  H  H92  1  0.50000058  0.23652069  0.12773572  1
  H  H93  1  0.50000027  0.23643906  0.28999909  1
  H  H94  1  0.50000025  0.23744397  0.44999836  1
  H  H95  1  0.49999935  0.76347930  0.12773574  1
  H  H96  1  0.49999971  0.76356093  0.28999911  1
  H  H97  1  0.49999984  0.76255602  0.44999835  1
  H  H98  1  0.50000000  0.19908811  0.01898771  1
  H  H99  1  0.50000003  0.80091190  0.01898768  1
