# generated using pymatgen
data_H3C7
_symmetry_space_group_name_H-M   'P 1'
_cell_length_a   10.00000000
_cell_length_b   21.36688000
_cell_length_c   14.93221233
_cell_angle_alpha   90.00000000
_cell_angle_beta   90.00000000
_cell_angle_gamma   90.00000000
_symmetry_Int_Tables_number   1
_chemical_formula_structural   H3C7
_chemical_formula_sum   'H18 C42'
_cell_volume   3190.54789077
_cell_formula_units_Z   6
loop_
 _symmetry_equiv_pos_site_id
 _symmetry_equiv_pos_as_xyz
  1  'x, y, z'
loop_
 _atom_site_type_symbol
 _atom_site_label
 _atom_site_symmetry_multiplicity
 _atom_site_fract_x
 _atom_site_fract_y
 _atom_site_fract_z
 _atom_site_occupancy
  C  C0  1  0.49999997  0.21480894  0.55799056  1
  C  C1  1  0.49999986  0.23446275  0.71010867  1
  C  C2  1  0.49999975  0.23473571  0.87150495  1
  C  C3  1  0.49999996  0.26175706  0.62311901  1
  C  C4  1  0.49999997  0.26790137  0.78881022  1
  C  C5  1  0.49999958  0.26630012  0.95089053  1
  C  C6  1  0.49999966  0.33241614  0.12013758  1
  C  C7  1  0.49999988  0.33024457  0.28637412  1
  C  C8  1  0.49999982  0.33447715  0.45344680  1
  C  C9  1  0.50000011  0.33155179  0.61963763  1
  C  C10  1  0.50000011  0.33506594  0.78687056  1
  C  C11  1  0.49999977  0.33288480  0.95303201  1
  C  C12  1  0.49999983  0.36478788  0.03858933  1
  C  C13  1  0.49999990  0.36281274  0.20426729  1
  C  C14  1  0.49999990  0.36292009  0.36837042  1
  C  C15  1  0.49999998  0.36596258  0.53604560  1
  C  C16  1  0.50000021  0.36687659  0.70119991  1
  C  C17  1  0.50000011  0.36692255  0.87030301  1
  C  C18  1  0.50000024  0.43246788  0.03934254  1
  C  C19  1  0.50000009  0.43080171  0.20446603  1
  C  C20  1  0.50000005  0.43004711  0.36773802  1
  C  C21  1  0.50000011  0.43466864  0.53543573  1
  C  C22  1  0.50000018  0.43592941  0.70115349  1
  C  C23  1  0.50000029  0.43424809  0.87046247  1
  C  C24  1  0.50000035  0.46293777  0.12146216  1
  C  C25  1  0.50000009  0.46281717  0.28613366  1
  C  C26  1  0.50000021  0.46171198  0.45012096  1
  C  C27  1  0.50000015  0.47078414  0.61934610  1
  C  C28  1  0.50000019  0.46806843  0.78753020  1
  C  C29  1  0.50000041  0.46625974  0.95408473  1
  C  C30  1  0.50000006  0.54033272  0.62369522  1
  C  C31  1  0.50000009  0.53519409  0.79078696  1
  C  C32  1  0.50000034  0.53156573  0.95375078  1
  C  C33  1  0.50000005  0.58273601  0.55007318  1
  C  C34  1  0.49999996  0.57052771  0.70971681  1
  C  C35  1  0.50000015  0.56670243  0.87588926  1
  C  C36  1  0.49999976  0.64803947  0.55708515  1
  C  C37  1  0.49999986  0.63841871  0.71694359  1
  C  C38  1  0.50000009  0.63546728  0.88224817  1
  C  C39  1  0.49999976  0.67655411  0.63965193  1
  C  C40  1  0.50000000  0.66826693  0.80030790  1
  C  C41  1  0.50000009  0.66887926  0.96172365  1
  H  H42  1  0.49999959  0.16656176  0.58317256  1
  H  H43  1  0.49999964  0.18326523  0.71477498  1
  H  H44  1  0.49999960  0.18342260  0.86972723  1
  H  H45  1  0.49999972  0.72755334  0.64725066  1
  H  H46  1  0.49999996  0.71960261  0.80160459  1
  H  H47  1  0.50000002  0.72016161  0.95944215  1
  H  H48  1  0.50000037  0.21756108  0.48546654  1
  H  H49  1  0.49999927  0.28125716  0.12132698  1
  H  H50  1  0.50000012  0.27881540  0.28617062  1
  H  H51  1  0.49999953  0.28414302  0.45300578  1
  H  H52  1  0.50000078  0.51405857  0.12536207  1
  H  H53  1  0.49999986  0.51421380  0.28652332  1
  H  H54  1  0.50000070  0.51137030  0.44071029  1
  H  H55  1  0.50000027  0.56776405  0.48137619  1
  H  H56  1  0.49999967  0.67599078  0.49550969  1
  H  H57  1  0.49999944  0.23960973  0.01324539  1
  H  H58  1  0.50000035  0.55637952  0.01740174  1
  H  H59  1  0.50000014  0.64730163  0.02808233  1
