# generated using pymatgen
data_HC3
_symmetry_space_group_name_H-M   'P 1'
_cell_length_a   10.00000000
_cell_length_b   29.89204000
_cell_length_c   14.91395516
_cell_angle_alpha   90.00000000
_cell_angle_beta   90.00000000
_cell_angle_gamma   90.00000000
_symmetry_Int_Tables_number   1
_chemical_formula_structural   HC3
_chemical_formula_sum   'H26 C78'
_cell_volume   4458.08544136
_cell_formula_units_Z   26
loop_
 _symmetry_equiv_pos_site_id
 _symmetry_equiv_pos_as_xyz
  1  'x, y, z'
loop_
 _atom_site_type_symbol
 _atom_site_label
 _atom_site_symmetry_multiplicity
 _atom_site_fract_x
 _atom_site_fract_y
 _atom_site_fract_z
 _atom_site_occupancy
  C  C0  1  0.49999678  0.84651826  0.58448795  1
  C  C1  1  0.49999828  0.83840020  0.74652087  1
  C  C2  1  0.50000214  0.83350874  0.91149885  1
  C  C3  1  0.49999860  0.16479781  0.51938865  1
  C  C4  1  0.49999422  0.16410522  0.68126097  1
  C  C5  1  0.49999021  0.15770834  0.84186841  1
  C  C6  1  0.49999672  0.18796044  0.59983212  1
  C  C7  1  0.49999273  0.18521837  0.76500571  1
  C  C8  1  0.50001485  0.17776004  0.92488361  1
  C  C9  1  0.49999590  0.23699049  0.60791833  1
  C  C10  1  0.49999563  0.23371137  0.77339282  1
  C  C11  1  0.50003862  0.22434036  0.93297360  1
  C  C12  1  0.49999780  0.26260429  0.53121921  1
  C  C13  1  0.49999477  0.25935667  0.69299791  1
  C  C14  1  0.50000950  0.25501204  0.85968570  1
  C  C15  1  0.49996434  0.31000542  0.03459138  1
  C  C16  1  0.49998448  0.30903826  0.19924176  1
  C  C17  1  0.49999227  0.30997633  0.36562427  1
  C  C18  1  0.49999383  0.30919508  0.53215230  1
  C  C19  1  0.49999670  0.30730198  0.69698108  1
  C  C20  1  0.50000028  0.30458346  0.86474138  1
  C  C21  1  0.49998447  0.33251246  0.11726634  1
  C  C22  1  0.49998739  0.33179390  0.28166932  1
  C  C23  1  0.49999139  0.33277374  0.44735069  1
  C  C24  1  0.49999187  0.33254898  0.61539413  1
  C  C25  1  0.49999904  0.32989840  0.78286799  1
  C  C26  1  0.49999202  0.32980613  0.94946948  1
  C  C27  1  0.49999912  0.38017188  0.11655963  1
  C  C28  1  0.49998699  0.37970741  0.28183120  1
  C  C29  1  0.49998784  0.38074345  0.44905329  1
  C  C30  1  0.49998924  0.38083393  0.61588590  1
  C  C31  1  0.50000080  0.37886473  0.78224292  1
  C  C32  1  0.50000343  0.37843188  0.94866168  1
  C  C33  1  0.50000162  0.40246231  0.03234195  1
  C  C34  1  0.49999803  0.40340903  0.19936125  1
  C  C35  1  0.49998803  0.40294933  0.36469248  1
  C  C36  1  0.49998756  0.40480490  0.53270251  1
  C  C37  1  0.50000006  0.40416218  0.69926296  1
  C  C38  1  0.50000384  0.40235698  0.86542428  1
  C  C39  1  0.50000065  0.45042827  0.03407622  1
  C  C40  1  0.50000609  0.45132013  0.19961829  1
  C  C41  1  0.50003295  0.45056291  0.36396221  1
  C  C42  1  0.50002458  0.45348462  0.53192809  1
  C  C43  1  0.50000239  0.45308598  0.69874954  1
  C  C44  1  0.50000301  0.45064584  0.86586647  1
  C  C45  1  0.50000181  0.47320329  0.11570452  1
  C  C46  1  0.50003083  0.47406769  0.28201416  1
  C  C47  1  0.50010371  0.47311249  0.44658499  1
  C  C48  1  0.50000238  0.47852300  0.61712492  1
  C  C49  1  0.50000324  0.47589788  0.78428956  1
  C  C50  1  0.50000201  0.47399920  0.94909752  1
  C  C51  1  0.49997515  0.52784270  0.62295947  1
  C  C52  1  0.50001298  0.52384898  0.78837280  1
  C  C53  1  0.50000232  0.52042964  0.95006058  1
  C  C54  1  0.49989399  0.55799256  0.54904453  1
  C  C55  1  0.50001100  0.55006435  0.70843188  1
  C  C56  1  0.50001036  0.54615981  0.87302128  1
  C  C57  1  0.49995596  0.60382725  0.55545377  1
  C  C58  1  0.50001570  0.59855196  0.71571677  1
  C  C59  1  0.50000904  0.59457663  0.88041105  1
  C  C60  1  0.50001762  0.62588433  0.63821053  1
  C  C61  1  0.50001213  0.62068990  0.80155106  1
  C  C62  1  0.50000432  0.61659169  0.96415901  1
  C  C63  1  0.50001653  0.67434745  0.64339063  1
  C  C64  1  0.50000883  0.66873733  0.80794191  1
  C  C65  1  0.50000223  0.66264386  0.97037087  1
  C  C66  1  0.50000733  0.70125758  0.56563165  1
  C  C67  1  0.50000995  0.69571882  0.72814867  1
  C  C68  1  0.50000423  0.68993633  0.89332589  1
  C  C69  1  0.49999852  0.74748677  0.57094807  1
  C  C70  1  0.50000308  0.74362925  0.73373539  1
  C  C71  1  0.50000325  0.73859621  0.89989894  1
  C  C72  1  0.49999913  0.76986744  0.65396541  1
  C  C73  1  0.50000163  0.76469969  0.82023891  1
  C  C74  1  0.50000516  0.76082383  0.98335838  1
  C  C75  1  0.49999722  0.81905449  0.65943747  1
  C  C76  1  0.50000019  0.81290338  0.82569331  1
  C  C77  1  0.50000508  0.80758938  0.98872148  1
  H  H78  1  0.49999661  0.88296418  0.59266891  1
  H  H79  1  0.49999820  0.87501361  0.75189188  1
  H  H80  1  0.50000197  0.87011787  0.91576795  1
  H  H81  1  0.49999893  0.12815107  0.52065554  1
  H  H82  1  0.49999450  0.12743187  0.67951456  1
  H  H83  1  0.49998304  0.12128431  0.83364912  1
  H  H84  1  0.49999841  0.83369090  0.51578904  1
  H  H85  1  0.49999935  0.18064635  0.45332988  1
  H  H86  1  0.50000107  0.24536269  0.46708848  1
  H  H87  1  0.49990290  0.27446330  0.04306001  1
  H  H88  1  0.49998688  0.27232288  0.19859609  1
  H  H89  1  0.49999648  0.27345997  0.36359241  1
  H  H90  1  0.50000377  0.50973637  0.11783135  1
  H  H91  1  0.50003776  0.51079693  0.28246849  1
  H  H92  1  0.50028765  0.50855419  0.43646047  1
  H  H93  1  0.49971250  0.54732791  0.48050090  1
  H  H94  1  0.49992063  0.62269955  0.49268177  1
  H  H95  1  0.50000645  0.68582650  0.49922433  1
  H  H96  1  0.49999154  0.76672210  0.50856096  1
  H  H97  1  0.50002451  0.15762089  -0.01371741  1
  H  H98  1  0.50010537  0.23430212  0.00217446  1
  H  H99  1  0.49999665  0.53733023  0.01444078  1
  H  H100  1  0.50000283  0.59758123  0.02668989  1
  H  H101  1  0.49999882  0.67772425  0.03708300  1
  H  H102  1  0.50000808  0.74166257  0.04577743  1
  H  H103  1  0.50000713  0.82370971  0.05469861  1
