# generated using pymatgen
data_H5C24
_symmetry_space_group_name_H-M   'P 1'
_cell_length_a   10.00000000
_cell_length_b   29.89204000
_cell_length_c   14.83244418
_cell_angle_alpha   90.00000000
_cell_angle_beta   90.00000000
_cell_angle_gamma   90.00000000
_symmetry_Int_Tables_number   1
_chemical_formula_structural   H5C24
_chemical_formula_sum   'H20 C96'
_cell_volume   4433.72014677
_cell_formula_units_Z   4
loop_
 _symmetry_equiv_pos_site_id
 _symmetry_equiv_pos_as_xyz
  1  'x, y, z'
loop_
 _atom_site_type_symbol
 _atom_site_label
 _atom_site_symmetry_multiplicity
 _atom_site_fract_x
 _atom_site_fract_y
 _atom_site_fract_z
 _atom_site_occupancy
  C  C0  1  0.49999791  0.83480145  0.51681224  1
  C  C1  1  0.49999956  0.83626217  0.67985305  1
  C  C2  1  0.50000128  0.84133712  0.84525248  1
  C  C3  1  0.49999995  0.16477690  0.04858760  1
  C  C4  1  0.49999995  0.16465164  0.21548936  1
  C  C5  1  0.50000003  0.16473391  0.38253100  1
  C  C6  1  0.50000008  0.16496120  0.54925542  1
  C  C7  1  0.50000007  0.16510838  0.71565686  1
  C  C8  1  0.50000000  0.16500955  0.88198105  1
  C  C9  1  0.49999993  0.18746800  0.13203581  1
  C  C10  1  0.49999997  0.18739295  0.29894759  1
  C  C11  1  0.50000005  0.18762058  0.46581074  1
  C  C12  1  0.50000007  0.18787050  0.63240588  1
  C  C13  1  0.50000003  0.18792662  0.79883413  1
  C  C14  1  0.49999997  0.18770101  0.96531760  1
  C  C15  1  0.49999993  0.23585708  0.13189736  1
  C  C16  1  0.49999994  0.23577687  0.29884015  1
  C  C17  1  0.50000000  0.23597685  0.46578032  1
  C  C18  1  0.50000005  0.23624584  0.63237772  1
  C  C19  1  0.50000002  0.23631841  0.79875647  1
  C  C20  1  0.49999997  0.23607659  0.96520289  1
  C  C21  1  0.49999994  0.25961305  0.04850530  1
  C  C22  1  0.49999992  0.25940499  0.21531053  1
  C  C23  1  0.49999994  0.25942522  0.38227293  1
  C  C24  1  0.50000002  0.25979448  0.54903086  1
  C  C25  1  0.50000003  0.26004321  0.71552548  1
  C  C26  1  0.49999999  0.25991722  0.88200701  1
  C  C27  1  0.49999996  0.30757860  0.04818863  1
  C  C28  1  0.49999995  0.30729813  0.21508376  1
  C  C29  1  0.49999995  0.30731203  0.38219582  1
  C  C30  1  0.50000001  0.30775212  0.54903549  1
  C  C31  1  0.50000000  0.30807315  0.71551112  1
  C  C32  1  0.49999999  0.30794372  0.88180275  1
  C  C33  1  0.50000000  0.33106849  0.13155791  1
  C  C34  1  0.49999998  0.33080167  0.29865379  1
  C  C35  1  0.50000001  0.33122048  0.46550110  1
  C  C36  1  0.50000002  0.33181870  0.63223154  1
  C  C37  1  0.49999998  0.33195402  0.79866209  1
  C  C38  1  0.50000002  0.33164084  0.96492046  1
  C  C39  1  0.50000019  0.37888444  0.13114600  1
  C  C40  1  0.50000017  0.37848216  0.29860836  1
  C  C41  1  0.50000005  0.37903817  0.46548275  1
  C  C42  1  0.49999998  0.37983052  0.63232076  1
  C  C43  1  0.50000005  0.38000444  0.79851380  1
  C  C44  1  0.50000019  0.37959680  0.96448949  1
  C  C45  1  0.50000028  0.40302434  0.04775833  1
  C  C46  1  0.50000040  0.40193545  0.21504787  1
  C  C47  1  0.50000015  0.40229979  0.38180119  1
  C  C48  1  0.49999996  0.40323275  0.54861551  1
  C  C49  1  0.49999998  0.40400663  0.71543535  1
  C  C50  1  0.50000030  0.40393651  0.88158246  1
  C  C51  1  0.50000050  0.45095534  0.04747411  1
  C  C52  1  0.50000064  0.44944454  0.21504424  1
  C  C53  1  0.50000017  0.45003748  0.38142465  1
  C  C54  1  0.49999990  0.45109726  0.54834851  1
  C  C55  1  0.49999989  0.45218815  0.71548527  1
  C  C56  1  0.50000051  0.45222535  0.88143260  1
  C  C57  1  0.50000057  0.47298933  0.13209344  1
  C  C58  1  0.50000032  0.47318034  0.29794389  1
  C  C59  1  0.50000001  0.47415988  0.46427516  1
  C  C60  1  0.49999987  0.47534927  0.63165911  1
  C  C61  1  0.49999998  0.47675883  0.79854318  1
  C  C62  1  0.50000063  0.47591276  0.96444780  1
  C  C63  1  0.49999855  0.52052955  0.13302324  1
  C  C64  1  0.50000003  0.52113803  0.29738791  1
  C  C65  1  0.50000003  0.52203394  0.46247874  1
  C  C66  1  0.49999986  0.52328475  0.63119283  1
  C  C67  1  0.49999998  0.52544209  0.79891401  1
  C  C68  1  0.49999905  0.52461081  0.96548017  1
  C  C69  1  0.49999520  0.54380210  0.05113020  1
  C  C70  1  0.49999887  0.54394427  0.21502197  1
  C  C71  1  0.50000014  0.54415732  0.38016824  1
  C  C72  1  0.49999978  0.54630957  0.54719520  1
  C  C73  1  0.49999985  0.54843105  0.71322556  1
  C  C74  1  0.50000020  0.55054913  0.88102923  1
  C  C75  1  0.49999941  0.59277553  0.54620976  1
  C  C76  1  0.49999930  0.59633947  0.70922562  1
  C  C77  1  0.50000179  0.59990582  0.87585979  1
  C  C78  1  0.49999895  0.61855708  0.62389432  1
  C  C79  1  0.49999981  0.62238125  0.78997618  1
  C  C80  1  0.50000614  0.62987434  0.95050981  1
  C  C81  1  0.49999858  0.66705854  0.61671346  1
  C  C82  1  0.49999967  0.67087698  0.78294070  1
  C  C83  1  0.50000350  0.67575169  0.94431843  1
  C  C84  1  0.49999780  0.68934899  0.53269456  1
  C  C85  1  0.49999919  0.69301098  0.69640096  1
  C  C86  1  0.50000020  0.69801155  0.86131944  1
  C  C87  1  0.49999792  0.73551739  0.52696212  1
  C  C88  1  0.49999935  0.74109511  0.69030486  1
  C  C89  1  0.50000036  0.74658505  0.85659013  1
  C  C90  1  0.49999871  0.76256107  0.60448020  1
  C  C91  1  0.50000004  0.76752849  0.77094170  1
  C  C92  1  0.50000161  0.77358476  0.93470611  1
  C  C93  1  0.49999876  0.81173753  0.59789926  1
  C  C94  1  0.50000029  0.81564621  0.76476189  1
  C  C95  1  0.50000210  0.82034342  0.92867399  1
  H  H96  1  0.49999794  0.87147383  0.51718678  1
  H  H97  1  0.49999981  0.87293303  0.67649663  1
  H  H98  1  0.50000143  0.87793211  0.84031518  1
  H  H99  1  0.49999995  0.12807183  0.04842183  1
  H  H100  1  0.49999998  0.12794526  0.21567875  1
  H  H101  1  0.50000005  0.12803603  0.38304914  1
  H  H102  1  0.50000009  0.12828485  0.54976252  1
  H  H103  1  0.50000006  0.12843219  0.71577674  1
  H  H104  1  0.49999999  0.12832363  0.88178143  1
  H  H105  1  0.49999656  0.81842857  0.45094838  1
  H  H106  1  0.49998675  0.57923283  0.06114895  1
  H  H107  1  0.49999869  0.58064611  0.21455488  1
  H  H108  1  0.50000004  0.58066175  0.37633138  1
  H  H109  1  0.49999955  0.60974467  0.48152540  1
  H  H110  1  0.49999711  0.67056755  0.46945291  1
  H  H111  1  0.49999747  0.75104680  0.46019946  1
  H  H112  1  0.50001499  0.61909613  0.01947223  1
  H  H113  1  0.50000537  0.69455208  0.00752815  1
  H  H114  1  0.50000249  0.75835748  0.00168267  1
  H  H115  1  0.50000349  0.84043009  -0.00954010  1
