# generated using pymatgen
data_H4C9
_symmetry_space_group_name_H-M   'P 1'
_cell_length_a   10.00000000
_cell_length_b   29.89204000
_cell_length_c   18.05922046
_cell_angle_alpha   90.00000000
_cell_angle_beta   90.00000000
_cell_angle_gamma   90.00000000
_symmetry_Int_Tables_number   1
_chemical_formula_structural   H4C9
_chemical_formula_sum   'H32 C72'
_cell_volume   5398.26940245
_cell_formula_units_Z   8
loop_
 _symmetry_equiv_pos_site_id
 _symmetry_equiv_pos_as_xyz
  1  'x, y, z'
loop_
 _atom_site_type_symbol
 _atom_site_label
 _atom_site_symmetry_multiplicity
 _atom_site_fract_x
 _atom_site_fract_y
 _atom_site_fract_z
 _atom_site_occupancy
  C  C0  1  0.49999750  0.84622916  0.56959679  1
  C  C1  1  0.49999927  0.83964734  0.70330482  1
  C  C2  1  0.50000190  0.83691648  0.83945001  1
  C  C3  1  0.50000042  0.15025401  0.55566554  1
  C  C4  1  0.50000053  0.16534114  0.68109378  1
  C  C5  1  0.50000001  0.16667243  0.81521621  1
  C  C6  1  0.50000084  0.18438191  0.60893032  1
  C  C7  1  0.50000020  0.18971888  0.74628803  1
  C  C8  1  0.49999977  0.19047341  0.88069112  1
  C  C9  1  0.50000027  0.22698611  0.19305817  1
  C  C10  1  0.50000114  0.22965748  0.33035442  1
  C  C11  1  0.50000124  0.23510354  0.46776790  1
  C  C12  1  0.50000092  0.23432161  0.60467591  1
  C  C13  1  0.50000004  0.23773922  0.74246950  1
  C  C14  1  0.49999978  0.23732806  0.87799056  1
  C  C15  1  0.50000022  0.24901362  0.12615202  1
  C  C16  1  0.50000023  0.25117544  0.26146031  1
  C  C17  1  0.50000075  0.25441134  0.39676182  1
  C  C18  1  0.50000096  0.25848288  0.53498434  1
  C  C19  1  0.50000008  0.26000147  0.67129888  1
  C  C20  1  0.49999994  0.26125988  0.81062584  1
  C  C21  1  0.50000030  0.29671574  0.12338838  1
  C  C22  1  0.49999947  0.29982590  0.25851304  1
  C  C23  1  0.49999701  0.30223379  0.39377769  1
  C  C24  1  0.49999798  0.30767519  0.53259561  1
  C  C25  1  0.49999992  0.30939807  0.66985379  1
  C  C26  1  0.49999992  0.30978881  0.80906812  1
  C  C27  1  0.50000001  0.32132826  0.18774908  1
  C  C28  1  0.49999722  0.32413623  0.32474283  1
  C  C29  1  0.49999201  0.32596532  0.46114491  1
  C  C30  1  0.49999982  0.33388870  0.60211026  1
  C  C31  1  0.49999988  0.33330705  0.74039571  1
  C  C32  1  0.49999974  0.33364561  0.87619450  1
  C  C33  1  0.50000190  0.38340231  0.60568383  1
  C  C34  1  0.49999905  0.38146879  0.74300690  1
  C  C35  1  0.49999984  0.37964409  0.87820517  1
  C  C36  1  0.50000836  0.41237858  0.54334362  1
  C  C37  1  0.49999901  0.40666400  0.67550797  1
  C  C38  1  0.49999953  0.40468103  0.81240520  1
  C  C39  1  0.50000282  0.45833058  0.54651984  1
  C  C40  1  0.49999831  0.45514474  0.67928756  1
  C  C41  1  0.50000015  0.45317989  0.81577774  1
  C  C42  1  0.49999755  0.48146905  0.61387291  1
  C  C43  1  0.49999898  0.47826091  0.74926104  1
  C  C44  1  0.50000206  0.47660035  0.88384549  1
  C  C45  1  0.49999682  0.52999664  0.61615812  1
  C  C46  1  0.49999943  0.52642382  0.75223975  1
  C  C47  1  0.50000242  0.52272561  0.88668946  1
  C  C48  1  0.49999597  0.55598849  0.55081201  1
  C  C49  1  0.49999827  0.55246148  0.68528374  1
  C  C50  1  0.50000118  0.54889416  0.82163030  1
  C  C51  1  0.49999614  0.60218962  0.55321405  1
  C  C52  1  0.49999869  0.60046476  0.68786790  1
  C  C53  1  0.50000162  0.59752747  0.82460549  1
  C  C54  1  0.49999743  0.62568254  0.62108424  1
  C  C55  1  0.50000019  0.62307813  0.75811343  1
  C  C56  1  0.50000341  0.62079273  0.89262175  1
  C  C57  1  0.49999766  0.67428064  0.62388292  1
  C  C58  1  0.50000028  0.67106181  0.76098864  1
  C  C59  1  0.50000372  0.66695788  0.89550101  1
  C  C60  1  0.49999644  0.70060056  0.55893890  1
  C  C61  1  0.49999903  0.69659825  0.69337160  1
  C  C62  1  0.50000206  0.69326048  0.83066113  1
  C  C63  1  0.49999650  0.74687806  0.56169359  1
  C  C64  1  0.49999911  0.74465661  0.69626535  1
  C  C65  1  0.50000204  0.74194803  0.83392092  1
  C  C66  1  0.49999785  0.77011800  0.62944859  1
  C  C67  1  0.50000040  0.76684916  0.76691589  1
  C  C68  1  0.50000368  0.76526133  0.90189574  1
  C  C69  1  0.49999813  0.81934559  0.63217030  1
  C  C70  1  0.50000041  0.81507695  0.76957007  1
  C  C71  1  0.50000350  0.81209670  0.90440366  1
  H  H72  1  0.49999786  0.88269471  0.57588685  1
  H  H73  1  0.49999936  0.87629857  0.70650410  1
  H  H74  1  0.50000178  0.87360098  0.84100429  1
  H  H75  1  0.50000025  0.11593938  0.57726546  1
  H  H76  1  0.50000033  0.12876964  0.68533859  1
  H  H77  1  0.50000007  0.13000255  0.81480908  1
  H  H78  1  0.49999666  0.83308010  0.51310572  1
  H  H79  1  0.49999992  0.15162230  0.49563422  1
  H  H80  1  0.50000036  0.19031820  0.19524598  1
  H  H81  1  0.50000183  0.19294393  0.33235547  1
  H  H82  1  0.50000145  0.19913878  0.46859250  1
  H  H83  1  0.49999985  0.35799736  0.18618394  1
  H  H84  1  0.49999666  0.36085850  0.32259424  1
  H  H85  1  0.49997829  0.36130420  0.45100741  1
  H  H86  1  0.50002294  0.40047725  0.48735073  1
  H  H87  1  0.50000576  0.47618590  0.49368536  1
  H  H88  1  0.49999516  0.53980563  0.49655624  1
  H  H89  1  0.49999563  0.62051863  0.50079621  1
  H  H90  1  0.49999533  0.68455197  0.50458931  1
  H  H91  1  0.49999548  0.76548634  0.50951413  1
  H  H92  1  0.49999961  0.17329186  0.93431769  1
  H  H93  1  0.49999970  0.25526352  0.93063077  1
  H  H94  1  0.50000025  0.23002690  0.07424010  1
  H  H95  1  0.50000040  0.31364643  0.06954937  1
  H  H96  1  0.49999965  0.31567177  0.92879561  1
  H  H97  1  0.49999985  0.39630521  0.93200709  1
  H  H98  1  0.50000317  0.45852343  0.93638501  1
  H  H99  1  0.50000368  0.53883650  0.94102679  1
  H  H100  1  0.50000473  0.60243835  0.94493216  1
  H  H101  1  0.50000520  0.68297223  0.94991684  1
  H  H102  1  0.50000484  0.74678834  0.95413569  1
  H  H103  1  0.50000469  0.82899912  0.95825766  1
