# generated using pymatgen
data_H7C27
_symmetry_space_group_name_H-M   'P 1'
_cell_length_a   10.00000000
_cell_length_b   21.36688000
_cell_length_c   14.82447207
_cell_angle_alpha   90.00000000
_cell_angle_beta   90.00000000
_cell_angle_gamma   90.00000000
_symmetry_Int_Tables_number   1
_chemical_formula_structural   H7C27
_chemical_formula_sum   'H14 C54'
_cell_volume   3167.52715688
_cell_formula_units_Z   2
loop_
 _symmetry_equiv_pos_site_id
 _symmetry_equiv_pos_as_xyz
  1  'x, y, z'
loop_
 _atom_site_type_symbol
 _atom_site_label
 _atom_site_symmetry_multiplicity
 _atom_site_fract_x
 _atom_site_fract_y
 _atom_site_fract_z
 _atom_site_occupancy
  C  C0  1  0.49999978  0.28225146  0.04238889  1
  C  C1  1  0.49999962  0.28164948  0.20944666  1
  C  C2  1  0.49999938  0.28170874  0.37695904  1
  C  C3  1  0.49999975  0.28259720  0.54391037  1
  C  C4  1  0.50000032  0.28321102  0.71007630  1
  C  C5  1  0.50000001  0.28298183  0.87604129  1
  C  C6  1  0.49999957  0.31370785  0.12600703  1
  C  C7  1  0.49999926  0.31325081  0.29321246  1
  C  C8  1  0.49999925  0.31395929  0.46019584  1
  C  C9  1  0.50000005  0.31504846  0.62687035  1
  C  C10  1  0.50000029  0.31525630  0.79311197  1
  C  C11  1  0.49999964  0.31463101  0.95936190  1
  C  C12  1  0.49999960  0.38140576  0.12601253  1
  C  C13  1  0.49999938  0.38094710  0.29322087  1
  C  C14  1  0.49999933  0.38165615  0.46000653  1
  C  C15  1  0.50000003  0.38280750  0.62679527  1
  C  C16  1  0.50000028  0.38308450  0.79315303  1
  C  C17  1  0.49999963  0.38241328  0.95931701  1
  C  C18  1  0.49999981  0.41493313  0.04279359  1
  C  C19  1  0.49999980  0.41379009  0.20975330  1
  C  C20  1  0.49999964  0.41423256  0.37646560  1
  C  C21  1  0.49999983  0.41526474  0.54307287  1
  C  C22  1  0.50000028  0.41632284  0.70997376  1
  C  C23  1  0.50000005  0.41613424  0.87638898  1
  C  C24  1  0.50000026  0.48221798  0.04278399  1
  C  C25  1  0.50000039  0.48073957  0.20987028  1
  C  C26  1  0.50000044  0.48146360  0.37638777  1
  C  C27  1  0.50000031  0.48247028  0.54286777  1
  C  C28  1  0.50000023  0.48377882  0.71002408  1
  C  C29  1  0.50000023  0.48360292  0.87648624  1
  C  C30  1  0.50000049  0.51384468  0.12687225  1
  C  C31  1  0.50000076  0.51388043  0.29284104  1
  C  C32  1  0.50000072  0.51524770  0.45929296  1
  C  C33  1  0.50000035  0.51601229  0.62601866  1
  C  C34  1  0.50000021  0.51742959  0.79363566  1
  C  C35  1  0.50000039  0.51653737  0.95976875  1
  C  C36  1  0.50000028  0.58088713  0.12748674  1
  C  C37  1  0.50000069  0.58122967  0.29241415  1
  C  C38  1  0.50000084  0.58273025  0.45803696  1
  C  C39  1  0.50000035  0.58327432  0.62561816  1
  C  C40  1  0.50000012  0.58526347  0.79452878  1
  C  C41  1  0.50000033  0.58439390  0.96076958  1
  C  C42  1  0.49999998  0.61335306  0.04511111  1
  C  C43  1  0.50000027  0.61322638  0.20988418  1
  C  C44  1  0.50000063  0.61358781  0.37516091  1
  C  C45  1  0.50000046  0.61661245  0.54213429  1
  C  C46  1  0.49999996  0.61650949  0.70866577  1
  C  C47  1  0.50000009  0.61969657  0.87740954  1
  C  C48  1  0.49999994  0.68323713  0.54301068  1
  C  C49  1  0.49999939  0.68352637  0.70647249  1
  C  C50  1  0.49999976  0.68912802  0.87407647  1
  C  C51  1  0.49999923  0.71578625  0.62242014  1
  C  C52  1  0.49999920  0.71670160  0.78640886  1
  C  C53  1  0.50000001  0.73509583  0.94112503  1
  H  H54  1  0.50000041  0.23090774  0.04166794  1
  H  H55  1  0.50000002  0.23030645  0.20913475  1
  H  H56  1  0.49999985  0.23036933  0.37750677  1
  H  H57  1  0.50000003  0.23124702  0.54487584  1
  H  H58  1  0.50000062  0.23187385  0.71033208  1
  H  H59  1  0.50000023  0.23163377  0.87562327  1
  H  H60  1  0.49999891  0.76709549  0.62281204  1
  H  H61  1  0.49999924  0.76793109  0.78248838  1
  H  H62  1  0.49999969  0.78377863  0.91763769  1
  H  H63  1  0.49999934  0.66363745  0.05051609  1
  H  H64  1  0.49999992  0.66457092  0.20965554  1
  H  H65  1  0.50000037  0.66468625  0.37191755  1
  H  H66  1  0.50000003  0.70935655  0.47969644  1
  H  H67  1  0.50000041  0.73067415  0.01401691  1
