# generated using pymatgen
data_H3C11
_symmetry_space_group_name_H-M   'P 1'
_cell_length_a   10.00000000
_cell_length_b   25.62946000
_cell_length_c   14.86190955
_cell_angle_alpha   90.00000000
_cell_angle_beta   90.00000000
_cell_angle_gamma   90.00000000
_symmetry_Int_Tables_number   1
_chemical_formula_structural   H3C11
_chemical_formula_sum   'H18 C66'
_cell_volume   3809.02716297
_cell_formula_units_Z   6
loop_
 _symmetry_equiv_pos_site_id
 _symmetry_equiv_pos_as_xyz
  1  'x, y, z'
loop_
 _atom_site_type_symbol
 _atom_site_label
 _atom_site_symmetry_multiplicity
 _atom_site_fract_x
 _atom_site_fract_y
 _atom_site_fract_z
 _atom_site_occupancy
  C  C0  1  0.50000074  0.21940666  0.55827799  1
  C  C1  1  0.50000093  0.23516781  0.71220046  1
  C  C2  1  0.49999965  0.23591148  0.87516500  1
  C  C3  1  0.50000096  0.25799262  0.62472886  1
  C  C4  1  0.50000029  0.26301551  0.79162649  1
  C  C5  1  0.49999925  0.26304555  0.95418694  1
  C  C6  1  0.49999931  0.31989018  0.12203575  1
  C  C7  1  0.49999915  0.31961828  0.28843512  1
  C  C8  1  0.49999979  0.32031741  0.45386727  1
  C  C9  1  0.50000065  0.31589022  0.62119990  1
  C  C10  1  0.50000021  0.31890756  0.78921866  1
  C  C11  1  0.49999961  0.31850129  0.95497992  1
  C  C12  1  0.49999965  0.34614709  0.03937262  1
  C  C13  1  0.49999936  0.34607369  0.20539428  1
  C  C14  1  0.49999956  0.34672301  0.37092897  1
  C  C15  1  0.50000024  0.34499648  0.53787002  1
  C  C16  1  0.50000040  0.34496127  0.70362878  1
  C  C17  1  0.49999999  0.34665824  0.87187673  1
  C  C18  1  0.50000003  0.40220901  0.03798024  1
  C  C19  1  0.49999973  0.40204950  0.20479486  1
  C  C20  1  0.49999987  0.40256164  0.37151010  1
  C  C21  1  0.50000011  0.40158839  0.53878329  1
  C  C22  1  0.50000017  0.40166919  0.70412231  1
  C  C23  1  0.50000023  0.40274753  0.87106230  1
  C  C24  1  0.50000011  0.42941657  0.12142597  1
  C  C25  1  0.50000002  0.42931855  0.28794125  1
  C  C26  1  0.50000003  0.42949195  0.45546255  1
  C  C27  1  0.50000003  0.42996859  0.62138737  1
  C  C28  1  0.50000014  0.43013306  0.78721153  1
  C  C29  1  0.50000029  0.43009872  0.95453867  1
  C  C30  1  0.50000043  0.48521663  0.12137245  1
  C  C31  1  0.50000027  0.48463565  0.28770035  1
  C  C32  1  0.50000001  0.48550927  0.45551456  1
  C  C33  1  0.49999976  0.48653510  0.62135776  1
  C  C34  1  0.49999981  0.48665620  0.78697519  1
  C  C35  1  0.50000020  0.48596135  0.95432353  1
  C  C36  1  0.50000034  0.51304805  0.03828541  1
  C  C37  1  0.50000062  0.51221924  0.20479560  1
  C  C38  1  0.50000025  0.51150479  0.37100124  1
  C  C39  1  0.49999980  0.51427624  0.53833613  1
  C  C40  1  0.49999952  0.51528247  0.70380209  1
  C  C41  1  0.49999974  0.51381702  0.87080839  1
  C  C42  1  0.50000014  0.56896095  0.03997270  1
  C  C43  1  0.50000062  0.56814645  0.20531148  1
  C  C44  1  0.50000049  0.56698810  0.36977193  1
  C  C45  1  0.49999974  0.57102355  0.53693787  1
  C  C46  1  0.49999918  0.57225575  0.70302136  1
  C  C47  1  0.49999938  0.56991055  0.87119679  1
  C  C48  1  0.50000021  0.59480753  0.12234580  1
  C  C49  1  0.50000073  0.59443778  0.28796539  1
  C  C50  1  0.50000026  0.59383605  0.45173613  1
  C  C51  1  0.49999923  0.60126261  0.62054733  1
  C  C52  1  0.49999911  0.59895037  0.78890020  1
  C  C53  1  0.49999979  0.59703407  0.95499758  1
  C  C54  1  0.49999913  0.65911331  0.62418137  1
  C  C55  1  0.49999934  0.65484862  0.79215114  1
  C  C56  1  0.50000028  0.65147149  0.95527201  1
  C  C57  1  0.49999924  0.69461758  0.55004883  1
  C  C58  1  0.49999933  0.68430276  0.71063548  1
  C  C59  1  0.50000008  0.68109695  0.87756827  1
  C  C60  1  0.49999935  0.74901360  0.55745789  1
  C  C61  1  0.49999990  0.74089257  0.71810655  1
  C  C62  1  0.50000051  0.73837087  0.88428503  1
  C  C63  1  0.49999993  0.77277807  0.64051382  1
  C  C64  1  0.50000058  0.76566839  0.80195595  1
  C  C65  1  0.50000065  0.76642566  0.96396160  1
  H  H66  1  0.50000077  0.17897536  0.58249135  1
  H  H67  1  0.50000111  0.19246704  0.71666172  1
  H  H68  1  0.49999941  0.19314669  0.87463546  1
  H  H69  1  0.50000048  0.81530520  0.64818844  1
  H  H70  1  0.50000116  0.80844475  0.80326247  1
  H  H71  1  0.50000059  0.80916178  0.96090128  1
  H  H72  1  0.50000031  0.22262790  0.48549969  1
  H  H73  1  0.49999920  0.27731993  0.12447923  1
  H  H74  1  0.49999907  0.27679040  0.28914889  1
  H  H75  1  0.49999959  0.27838511  0.44930610  1
  H  H76  1  0.49999967  0.63735863  0.12597090  1
  H  H77  1  0.50000057  0.63723698  0.28891595  1
  H  H78  1  0.50000038  0.63519995  0.44254934  1
  H  H79  1  0.49999971  0.68293835  0.48053114  1
  H  H80  1  0.49999924  0.77216570  0.49538307  1
  H  H81  1  0.49999885  0.24138574  0.01735933  1
  H  H82  1  0.50000093  0.67202388  0.01934851  1
  H  H83  1  0.50000047  0.74897792  0.03103771  1
