# generated using pymatgen
data_H4C9
_symmetry_space_group_name_H-M   'P 1'
_cell_length_a   10.00000000
_cell_length_b   29.89204000
_cell_length_c   17.75745567
_cell_angle_alpha   90.00000000
_cell_angle_beta   90.00000000
_cell_angle_gamma   90.00000000
_symmetry_Int_Tables_number   1
_chemical_formula_structural   H4C9
_chemical_formula_sum   'H32 C72'
_cell_volume   5308.06575283
_cell_formula_units_Z   8
loop_
 _symmetry_equiv_pos_site_id
 _symmetry_equiv_pos_as_xyz
  1  'x, y, z'
loop_
 _atom_site_type_symbol
 _atom_site_label
 _atom_site_symmetry_multiplicity
 _atom_site_fract_x
 _atom_site_fract_y
 _atom_site_fract_z
 _atom_site_occupancy
  C  C0  1  0.49999800  0.84066306  0.55385336  1
  C  C1  1  0.49999918  0.83606610  0.68999093  1
  C  C2  1  0.50000152  0.83536181  0.82834341  1
  C  C3  1  0.49999897  0.16192577  0.54319223  1
  C  C4  1  0.50000001  0.16451504  0.67953128  1
  C  C5  1  0.50000083  0.16342572  0.81811595  1
  C  C6  1  0.49999957  0.18686770  0.60886855  1
  C  C7  1  0.50000034  0.18714116  0.74874526  1
  C  C8  1  0.50000094  0.18636809  0.88602836  1
  C  C9  1  0.49999978  0.23625488  0.61026769  1
  C  C10  1  0.50000008  0.23549137  0.74999503  1
  C  C11  1  0.50000065  0.23327122  0.88724731  1
  C  C12  1  0.49999985  0.26102526  0.54379667  1
  C  C13  1  0.49999984  0.25964997  0.68038694  1
  C  C14  1  0.50000013  0.25852812  0.82011433  1
  C  C15  1  0.50000023  0.30762265  0.12632699  1
  C  C16  1  0.50000020  0.30980872  0.26299951  1
  C  C17  1  0.50000010  0.30975065  0.40174006  1
  C  C18  1  0.49999984  0.30785029  0.54184046  1
  C  C19  1  0.49999983  0.30760205  0.68038630  1
  C  C20  1  0.49999974  0.30725691  0.82012260  1
  C  C21  1  0.50000021  0.33233885  0.19122352  1
  C  C22  1  0.50000012  0.33231525  0.33102743  1
  C  C23  1  0.49999997  0.33188955  0.47015232  1
  C  C24  1  0.49999982  0.33180902  0.61136577  1
  C  C25  1  0.49999979  0.33137441  0.75094060  1
  C  C26  1  0.49999937  0.33176875  0.88797047  1
  C  C27  1  0.50000020  0.38250851  0.19195048  1
  C  C28  1  0.50000005  0.38126167  0.33168695  1
  C  C29  1  0.49999996  0.38087487  0.47076031  1
  C  C30  1  0.49999983  0.38014344  0.61202585  1
  C  C31  1  0.49999979  0.37932969  0.75149715  1
  C  C32  1  0.49999934  0.37792025  0.88852151  1
  C  C33  1  0.50000034  0.40804503  0.12801178  1
  C  C34  1  0.50000008  0.40435451  0.26434953  1
  C  C35  1  0.49999998  0.40338504  0.40290785  1
  C  C36  1  0.49999985  0.40459889  0.54312390  1
  C  C37  1  0.49999980  0.40377170  0.68168137  1
  C  C38  1  0.49999973  0.40295540  0.82105984  1
  C  C39  1  0.49999968  0.45136619  0.54620879  1
  C  C40  1  0.49999962  0.45174935  0.68279192  1
  C  C41  1  0.50000016  0.45152237  0.82181945  1
  C  C42  1  0.49999941  0.47579025  0.61357176  1
  C  C43  1  0.49999998  0.47566380  0.75285306  1
  C  C44  1  0.50000085  0.47604497  0.88978168  1
  C  C45  1  0.49999894  0.52468091  0.61386141  1
  C  C46  1  0.50000025  0.52373050  0.75319194  1
  C  C47  1  0.50000131  0.52219959  0.89010486  1
  C  C48  1  0.49999792  0.54996704  0.54667700  1
  C  C49  1  0.49999955  0.54830648  0.68340546  1
  C  C50  1  0.50000101  0.54724976  0.82264118  1
  C  C51  1  0.49999753  0.59624060  0.54738482  1
  C  C52  1  0.49999932  0.59640347  0.68417312  1
  C  C53  1  0.50000157  0.59585184  0.82341003  1
  C  C54  1  0.49999824  0.62076276  0.61531275  1
  C  C55  1  0.50000044  0.62021521  0.75464110  1
  C  C56  1  0.50000314  0.62012182  0.89162398  1
  C  C57  1  0.49999808  0.66950749  0.61594260  1
  C  C58  1  0.50000060  0.66825304  0.75554193  1
  C  C59  1  0.50000331  0.66629825  0.89249970  1
  C  C60  1  0.49999676  0.69489432  0.54882093  1
  C  C61  1  0.49999933  0.69286627  0.68571847  1
  C  C62  1  0.50000196  0.69153684  0.82544871  1
  C  C63  1  0.49999684  0.74122420  0.54989389  1
  C  C64  1  0.49999938  0.74095487  0.68675722  1
  C  C65  1  0.50000193  0.74030786  0.82682176  1
  C  C66  1  0.49999822  0.76541795  0.61783842  1
  C  C67  1  0.50000062  0.76418536  0.75766157  1
  C  C68  1  0.50000312  0.76474333  0.89488493  1
  C  C69  1  0.49999839  0.81470009  0.61854006  1
  C  C70  1  0.50000041  0.81243645  0.75831740  1
  C  C71  1  0.50000300  0.81161030  0.89547085  1
  H  H72  1  0.49999834  0.87722347  0.55866141  1
  H  H73  1  0.49999901  0.87276736  0.69177087  1
  H  H74  1  0.50000123  0.87203472  0.82827845  1
  H  H75  1  0.49999867  0.12531256  0.54628264  1
  H  H76  1  0.50000011  0.12780617  0.67967557  1
  H  H77  1  0.50000104  0.12674651  0.81706262  1
  H  H78  1  0.49999767  0.82668655  0.49697034  1
  H  H79  1  0.49999863  0.17679822  0.48693526  1
  H  H80  1  0.49999992  0.24271662  0.49069982  1
  H  H81  1  0.50000028  0.27099548  0.12857699  1
  H  H82  1  0.50000020  0.27308063  0.26287695  1
  H  H83  1  0.50000018  0.27317090  0.39927651  1
  H  H84  1  0.50000034  0.44462518  0.13186375  1
  H  H85  1  0.50000001  0.44106265  0.26516026  1
  H  H86  1  0.49999999  0.43996317  0.40124272  1
  H  H87  1  0.49999976  0.46987037  0.49337088  1
  H  H88  1  0.49999737  0.53325096  0.49191833  1
  H  H89  1  0.49999659  0.61380511  0.49340144  1
  H  H90  1  0.49999576  0.67816340  0.49405604  1
  H  H91  1  0.49999596  0.75925812  0.49626819  1
  H  H92  1  0.50000133  0.16785517  0.93935905  1
  H  H93  1  0.50000076  0.25003299  0.94196107  1
  H  H94  1  0.50000024  0.32312585  0.07054809  1
  H  H95  1  0.49999900  0.31402038  0.94174163  1
  H  H96  1  0.49999895  0.39511107  0.94278011  1
  H  H97  1  0.50000048  0.39339630  0.07157621  1
  H  H98  1  0.50000118  0.45869134  0.94396012  1
  H  H99  1  0.50000185  0.53929583  0.94448756  1
  H  H100  1  0.50000412  0.60247924  0.94551099  1
  H  H101  1  0.50000447  0.68327143  0.94700125  1
  H  H102  1  0.50000404  0.74722108  0.94888852  1
  H  H103  1  0.50000379  0.82948132  0.94937905  1
