# generated using pymatgen
data_H7C18
_symmetry_space_group_name_H-M   'P 1'
_cell_length_a   10.00000000
_cell_length_b   29.89204000
_cell_length_c   14.93846824
_cell_angle_alpha   90.00000000
_cell_angle_beta   90.00000000
_cell_angle_gamma   90.00000000
_symmetry_Int_Tables_number   1
_chemical_formula_structural   H7C18
_chemical_formula_sum   'H28 C72'
_cell_volume   4465.41290034
_cell_formula_units_Z   4
loop_
 _symmetry_equiv_pos_site_id
 _symmetry_equiv_pos_as_xyz
  1  'x, y, z'
loop_
 _atom_site_type_symbol
 _atom_site_label
 _atom_site_symmetry_multiplicity
 _atom_site_fract_x
 _atom_site_fract_y
 _atom_site_fract_z
 _atom_site_occupancy
  C  C0  1  0.49999988  0.84468267  0.56269260  1
  C  C1  1  0.49999990  0.83852400  0.72469638  1
  C  C2  1  0.50000011  0.83574931  0.88933840  1
  C  C3  1  0.49999986  0.15168954  0.56749708  1
  C  C4  1  0.50000000  0.16029494  0.72870448  1
  C  C5  1  0.50000007  0.16640705  0.89214152  1
  C  C6  1  0.49999996  0.17934170  0.64190671  1
  C  C7  1  0.50000005  0.18668624  0.80617067  1
  C  C8  1  0.50000012  0.19251531  0.96882847  1
  C  C9  1  0.49999998  0.22844738  0.63589560  1
  C  C10  1  0.50000007  0.23491709  0.79916599  1
  C  C11  1  0.50000010  0.23918273  0.96200634  1
  C  C12  1  0.49999990  0.25008645  0.55316086  1
  C  C13  1  0.50000002  0.25623516  0.71278580  1
  C  C14  1  0.50000009  0.26086162  0.87792911  1
  C  C15  1  0.49999983  0.29602878  0.54537779  1
  C  C16  1  0.50000000  0.30474730  0.70426314  1
  C  C17  1  0.50000007  0.30931757  0.86894612  1
  C  C18  1  0.49999992  0.32666119  0.61851552  1
  C  C19  1  0.50000004  0.33125071  0.78382126  1
  C  C20  1  0.50000005  0.33499183  0.94585662  1
  C  C21  1  0.49999999  0.38181306  0.11174131  1
  C  C22  1  0.49999994  0.37995583  0.27667885  1
  C  C23  1  0.49999998  0.38143368  0.44303180  1
  C  C24  1  0.49999995  0.37641660  0.61268252  1
  C  C25  1  0.50000002  0.37932126  0.77923139  1
  C  C26  1  0.50000002  0.38135273  0.94505582  1
  C  C27  1  0.49999999  0.40467315  0.03078135  1
  C  C28  1  0.49999998  0.40374061  0.19553875  1
  C  C29  1  0.49999992  0.40279101  0.35889101  1
  C  C30  1  0.49999994  0.40167476  0.52775232  1
  C  C31  1  0.50000000  0.40232971  0.69327503  1
  C  C32  1  0.50000001  0.40411253  0.86121391  1
  C  C33  1  0.49999999  0.45276374  0.03073287  1
  C  C34  1  0.50000002  0.45229531  0.19584306  1
  C  C35  1  0.50000014  0.45047854  0.35907823  1
  C  C36  1  0.50000012  0.45104901  0.52756297  1
  C  C37  1  0.50000000  0.45209093  0.69284457  1
  C  C38  1  0.50000002  0.45224240  0.86086301  1
  C  C39  1  0.49999999  0.47507426  0.11246945  1
  C  C40  1  0.50000015  0.47468013  0.27831124  1
  C  C41  1  0.50000056  0.47128993  0.44320521  1
  C  C42  1  0.49999998  0.47705227  0.61138917  1
  C  C43  1  0.50000001  0.47613540  0.77788444  1
  C  C44  1  0.50000003  0.47582259  0.94415696  1
  C  C45  1  0.49999980  0.52669620  0.61505657  1
  C  C46  1  0.50000007  0.52422135  0.78037083  1
  C  C47  1  0.50000007  0.52231067  0.94290208  1
  C  C48  1  0.49999932  0.55642653  0.54052962  1
  C  C49  1  0.50000002  0.54974758  0.69959689  1
  C  C50  1  0.50000011  0.54725938  0.86441447  1
  C  C51  1  0.49999972  0.60225829  0.54531664  1
  C  C52  1  0.50000005  0.59837299  0.70511238  1
  C  C53  1  0.50000012  0.59592125  0.86972580  1
  C  C54  1  0.50000005  0.62504353  0.62681667  1
  C  C55  1  0.50000009  0.62136393  0.78991293  1
  C  C56  1  0.50000011  0.61909407  0.95222477  1
  C  C57  1  0.50000000  0.67348934  0.62953422  1
  C  C58  1  0.50000005  0.66956284  0.79406293  1
  C  C59  1  0.50000015  0.66528051  0.95623423  1
  C  C60  1  0.49999987  0.69952250  0.55066218  1
  C  C61  1  0.50000001  0.69567092  0.71320514  1
  C  C62  1  0.50000011  0.69182914  0.87825600  1
  C  C63  1  0.49999979  0.74575635  0.55381728  1
  C  C64  1  0.49999993  0.74362564  0.71653521  1
  C  C65  1  0.50000012  0.74063048  0.88267306  1
  C  C66  1  0.49999980  0.76895496  0.63569975  1
  C  C67  1  0.50000003  0.76572102  0.80186554  1
  C  C68  1  0.50000021  0.76402141  0.96483573  1
  C  C69  1  0.49999983  0.81814221  0.63880450  1
  C  C70  1  0.50000002  0.81397919  0.80487162  1
  C  C71  1  0.50000018  0.81088979  0.96777369  1
  H  H72  1  0.49999988  0.88117888  0.56939602  1
  H  H73  1  0.49999992  0.87517596  0.72826190  1
  H  H74  1  0.50000010  0.87241141  0.89132701  1
  H  H75  1  0.49999989  0.11533853  0.57650846  1
  H  H76  1  0.49999990  0.12374444  0.73549682  1
  H  H77  1  0.50000005  0.12981542  0.89667845  1
  H  H78  1  0.49999997  0.83112851  0.49469462  1
  H  H79  1  0.49999987  0.16412283  0.49874264  1
  H  H80  1  0.49999982  0.23048857  0.49125531  1
  H  H81  1  0.49999958  0.30594702  0.47629534  1
  H  H82  1  0.49999999  0.34527035  0.11434839  1
  H  H83  1  0.49999992  0.34322883  0.27530474  1
  H  H84  1  0.50000023  0.34583166  0.43563202  1
  H  H85  1  0.50000000  0.51164676  0.11558213  1
  H  H86  1  0.50000018  0.51140379  0.27974972  1
  H  H87  1  0.50000172  0.50673594  0.43604707  1
  H  H88  1  0.49999819  0.54617547  0.47188690  1
  H  H89  1  0.49999953  0.62043548  0.48189032  1
  H  H90  1  0.49999985  0.68345788  0.48498900  1
  H  H91  1  0.49999967  0.76431780  0.49067932  1
  H  H92  1  0.50000019  0.17687145  0.03520630  1
  H  H93  1  0.50000014  0.25839527  0.02420923  1
  H  H94  1  0.50000003  0.31789510  0.00987122  1
  H  H95  1  0.50000003  0.53998147  0.00652123  1
  H  H96  1  0.50000014  0.60090896  0.01569924  1
  H  H97  1  0.50000018  0.68122114  0.02201925  1
  H  H98  1  0.50000040  0.74575735  0.02822647  1
  H  H99  1  0.50000029  0.82791951  0.03275445  1
