# generated using pymatgen
data_H4C21
_symmetry_space_group_name_H-M   'P 1'
_cell_length_a   10.00000000
_cell_length_b   25.62946000
_cell_length_c   14.83062220
_cell_angle_alpha   90.00000000
_cell_angle_beta   90.00000000
_cell_angle_gamma   90.00000000
_symmetry_Int_Tables_number   1
_chemical_formula_structural   H4C21
_chemical_formula_sum   'H16 C84'
_cell_volume   3801.00838534
_cell_formula_units_Z   4
loop_
 _symmetry_equiv_pos_site_id
 _symmetry_equiv_pos_as_xyz
  1  'x, y, z'
loop_
 _atom_site_type_symbol
 _atom_site_label
 _atom_site_symmetry_multiplicity
 _atom_site_fract_x
 _atom_site_fract_y
 _atom_site_fract_z
 _atom_site_occupancy
  C  C0  1  0.49999937  0.80729909  0.53208849  1
  C  C1  1  0.49999992  0.80716438  0.69473221  1
  C  C2  1  0.50000002  0.81448429  0.85655378  1
  C  C3  1  0.50000103  0.19326809  0.04387307  1
  C  C4  1  0.50000003  0.19312703  0.21063648  1
  C  C5  1  0.50000003  0.19309068  0.37750816  1
  C  C6  1  0.50000031  0.19317869  0.54428381  1
  C  C7  1  0.50000057  0.19329965  0.71086377  1
  C  C8  1  0.50000207  0.19333908  0.87731532  1
  C  C9  1  0.50000017  0.21976602  0.12726584  1
  C  C10  1  0.50000003  0.21965184  0.29407864  1
  C  C11  1  0.50000031  0.21970287  0.46089244  1
  C  C12  1  0.50000056  0.21985286  0.62755128  1
  C  C13  1  0.50000123  0.21997261  0.79405566  1
  C  C14  1  0.50000113  0.21992518  0.96057395  1
  C  C15  1  0.49999973  0.27618936  0.12714561  1
  C  C16  1  0.50000017  0.27608531  0.29402581  1
  C  C17  1  0.50000049  0.27613996  0.46092393  1
  C  C18  1  0.50000073  0.27632674  0.62757569  1
  C  C19  1  0.50000070  0.27646378  0.79402873  1
  C  C20  1  0.50000001  0.27636824  0.96048723  1
  C  C21  1  0.49999950  0.30387813  0.04379425  1
  C  C22  1  0.49999984  0.30365784  0.21054757  1
  C  C23  1  0.50000036  0.30360823  0.37749845  1
  C  C24  1  0.50000046  0.30386219  0.54425175  1
  C  C25  1  0.50000070  0.30410284  0.71076105  1
  C  C26  1  0.50000005  0.30411108  0.87727126  1
  C  C27  1  0.49999938  0.35981911  0.04354275  1
  C  C28  1  0.49999971  0.35950233  0.21042600  1
  C  C29  1  0.50000007  0.35944678  0.37757988  1
  C  C30  1  0.50000003  0.35983922  0.54443492  1
  C  C31  1  0.50000022  0.36016952  0.71085028  1
  C  C32  1  0.49999966  0.36014693  0.87714338  1
  C  C33  1  0.49999957  0.38722363  0.12694752  1
  C  C34  1  0.49999979  0.38686796  0.29409376  1
  C  C35  1  0.49999981  0.38725518  0.46094409  1
  C  C36  1  0.49999986  0.38793707  0.62767297  1
  C  C37  1  0.49999977  0.38811194  0.79400551  1
  C  C38  1  0.49999947  0.38785593  0.96027956  1
  C  C39  1  0.49999977  0.44296557  0.12676943  1
  C  C40  1  0.49999968  0.44247582  0.29423651  1
  C  C41  1  0.49999952  0.44304074  0.46104764  1
  C  C42  1  0.49999941  0.44394708  0.62783659  1
  C  C43  1  0.49999939  0.44419488  0.79401716  1
  C  C44  1  0.49999961  0.44382146  0.96002000  1
  C  C45  1  0.49999980  0.47108919  0.04342417  1
  C  C46  1  0.49999994  0.46984710  0.21072954  1
  C  C47  1  0.49999966  0.47024754  0.37744792  1
  C  C48  1  0.49999944  0.47125504  0.54421239  1
  C  C49  1  0.49999918  0.47221383  0.71100490  1
  C  C50  1  0.49999943  0.47215063  0.87711744  1
  C  C51  1  0.49999988  0.52697407  0.04335703  1
  C  C52  1  0.50000024  0.52527484  0.21086618  1
  C  C53  1  0.50000005  0.52595750  0.37721921  1
  C  C54  1  0.49999965  0.52711959  0.54412976  1
  C  C55  1  0.49999916  0.52849182  0.71130499  1
  C  C56  1  0.49999935  0.52837472  0.87720911  1
  C  C57  1  0.50000016  0.55275680  0.12794718  1
  C  C58  1  0.50000036  0.55298971  0.29375139  1
  C  C59  1  0.50000005  0.55407819  0.46013011  1
  C  C60  1  0.49999958  0.55540959  0.62741060  1
  C  C61  1  0.49999921  0.55711138  0.79453495  1
  C  C62  1  0.49999954  0.55595390  0.96034743  1
  C  C63  1  0.49999996  0.60824084  0.12888638  1
  C  C64  1  0.50000047  0.60896067  0.29327832  1
  C  C65  1  0.50000028  0.60993574  0.45843554  1
  C  C66  1  0.49999997  0.61140520  0.62694385  1
  C  C67  1  0.49999948  0.61398232  0.79515121  1
  C  C68  1  0.49999938  0.61268238  0.96145110  1
  C  C69  1  0.49999944  0.63531818  0.04692293  1
  C  C70  1  0.50000027  0.63559111  0.21085605  1
  C  C71  1  0.50000053  0.63577639  0.37609282  1
  C  C72  1  0.50000012  0.63832041  0.54301224  1
  C  C73  1  0.50000000  0.64059419  0.70910234  1
  C  C74  1  0.49999938  0.64301643  0.87764611  1
  C  C75  1  0.49999983  0.69272788  0.54207338  1
  C  C76  1  0.50000020  0.69642075  0.70540106  1
  C  C77  1  0.49999970  0.70085896  0.87347270  1
  C  C78  1  0.50000003  0.72248647  0.61969408  1
  C  C79  1  0.50000009  0.72599693  0.78677583  1
  C  C80  1  0.49999978  0.73641408  0.94743673  1
  C  C81  1  0.49999989  0.77969098  0.61242142  1
  C  C82  1  0.50000002  0.78255665  0.77893762  1
  C  C83  1  0.50000000  0.79077750  0.93981870  1
  H  H84  1  0.49999937  0.85005527  0.53422329  1
  H  H85  1  0.49999939  0.84992160  0.69292256  1
  H  H86  1  0.50000006  0.85698019  0.84896156  1
  H  H87  1  0.50000149  0.15047162  0.04384089  1
  H  H88  1  0.50000008  0.15031827  0.21043996  1
  H  H89  1  0.49999975  0.15027819  0.37759395  1
  H  H90  1  0.49999979  0.15037527  0.54446436  1
  H  H91  1  0.50000002  0.15049773  0.71114061  1
  H  H92  1  0.50000326  0.15053350  0.87753352  1
  H  H93  1  0.49999900  0.78940051  0.46518854  1
  H  H94  1  0.49999934  0.67668532  0.05643145  1
  H  H95  1  0.50000033  0.67840409  0.20999367  1
  H  H96  1  0.50000083  0.67833337  0.37261380  1
  H  H97  1  0.49999950  0.71302176  0.47765564  1
  H  H98  1  0.49999964  0.72435724  0.01682668  1
  H  H99  1  0.50000038  0.81404483  0.00178261  1
