# generated using pymatgen
data_HC5
_symmetry_space_group_name_H-M   'P 1'
_cell_length_a   10.00000000
_cell_length_b   29.89204000
_cell_length_c   14.84674502
_cell_angle_alpha   90.00000000
_cell_angle_beta   90.00000000
_cell_angle_gamma   90.00000000
_symmetry_Int_Tables_number   1
_chemical_formula_structural   HC5
_chemical_formula_sum   'H18 C90'
_cell_volume   4437.99496080
_cell_formula_units_Z   18
loop_
 _symmetry_equiv_pos_site_id
 _symmetry_equiv_pos_as_xyz
  1  'x, y, z'
loop_
 _atom_site_type_symbol
 _atom_site_label
 _atom_site_symmetry_multiplicity
 _atom_site_fract_x
 _atom_site_fract_y
 _atom_site_fract_z
 _atom_site_occupancy
  C  C0  1  0.50000018  0.18767715  0.55834651  1
  C  C1  1  0.49999998  0.20083989  0.71292595  1
  C  C2  1  0.49999993  0.20165404  0.87663029  1
  C  C3  1  0.50000008  0.22049537  0.62540424  1
  C  C4  1  0.49999995  0.22468043  0.79267954  1
  C  C5  1  0.49999992  0.22495194  0.95588972  1
  C  C6  1  0.49999990  0.27455206  0.12343331  1
  C  C7  1  0.49999996  0.27458224  0.28898051  1
  C  C8  1  0.50000004  0.27450010  0.45383917  1
  C  C9  1  0.50000004  0.27010898  0.62181172  1
  C  C10  1  0.49999998  0.27257813  0.79027959  1
  C  C11  1  0.49999994  0.27252364  0.95654909  1
  C  C12  1  0.49999994  0.29673091  0.04058502  1
  C  C13  1  0.49999995  0.29745369  0.20633478  1
  C  C14  1  0.50000001  0.29765141  0.37140946  1
  C  C15  1  0.50000004  0.29521985  0.53832912  1
  C  C16  1  0.50000001  0.29489617  0.70449033  1
  C  C17  1  0.49999998  0.29642228  0.87311875  1
  C  C18  1  0.49999998  0.34481815  0.03908903  1
  C  C19  1  0.50000000  0.34547818  0.20579595  1
  C  C20  1  0.50000002  0.34547771  0.37207556  1
  C  C21  1  0.50000003  0.34372795  0.53934412  1
  C  C22  1  0.50000002  0.34337124  0.70514213  1
  C  C23  1  0.49999999  0.34444892  0.87241804  1
  C  C24  1  0.49999999  0.36865653  0.12216291  1
  C  C25  1  0.50000002  0.36904603  0.28895537  1
  C  C26  1  0.50000001  0.36816389  0.45620932  1
  C  C27  1  0.50000002  0.36760975  0.62236116  1
  C  C28  1  0.50000001  0.36769558  0.78850443  1
  C  C29  1  0.49999998  0.36837500  0.95547267  1
  C  C30  1  0.50000000  0.41640511  0.12174828  1
  C  C31  1  0.50000001  0.41660708  0.28904575  1
  C  C32  1  0.49999999  0.41606370  0.45631079  1
  C  C33  1  0.50000000  0.41579887  0.62241023  1
  C  C34  1  0.50000000  0.41589770  0.78833236  1
  C  C35  1  0.49999999  0.41624453  0.95490241  1
  C  C36  1  0.50000000  0.44001304  0.03820337  1
  C  C37  1  0.50000001  0.43988563  0.20523553  1
  C  C38  1  0.49999999  0.43985873  0.37285216  1
  C  C39  1  0.49999999  0.43989284  0.53947736  1
  C  C40  1  0.50000000  0.43994790  0.70528352  1
  C  C41  1  0.50000000  0.44003773  0.87136585  1
  C  C42  1  0.50000000  0.48774167  0.03801051  1
  C  C43  1  0.50000000  0.48740204  0.20506243  1
  C  C44  1  0.49999998  0.48757612  0.37271391  1
  C  C45  1  0.49999999  0.48792157  0.53941846  1
  C  C46  1  0.50000000  0.48812416  0.70517091  1
  C  C47  1  0.50000000  0.48811520  0.87118190  1
  C  C48  1  0.50000001  0.51105836  0.12164667  1
  C  C49  1  0.49999999  0.51065958  0.28870850  1
  C  C50  1  0.49999999  0.51148997  0.45606190  1
  C  C51  1  0.50000000  0.51219097  0.62221327  1
  C  C52  1  0.50000001  0.51228209  0.78802121  1
  C  C53  1  0.50000000  0.51172560  0.95467644  1
  C  C54  1  0.50000000  0.55874113  0.12183138  1
  C  C55  1  0.50000000  0.55809744  0.28838627  1
  C  C56  1  0.50000001  0.55939715  0.45591549  1
  C  C57  1  0.50000000  0.56046346  0.62199343  1
  C  C58  1  0.50000001  0.56057434  0.78768035  1
  C  C59  1  0.50000001  0.55959379  0.95478118  1
  C  C60  1  0.50000000  0.58275362  0.03878928  1
  C  C61  1  0.49999998  0.58180675  0.20536965  1
  C  C62  1  0.50000001  0.58155570  0.37135681  1
  C  C63  1  0.50000000  0.58421811  0.53889811  1
  C  C64  1  0.50000000  0.58514542  0.70453049  1
  C  C65  1  0.50000002  0.58377809  0.87147031  1
  C  C66  1  0.50000000  0.63063521  0.04049168  1
  C  C67  1  0.49999996  0.62973828  0.20580740  1
  C  C68  1  0.50000002  0.62910846  0.37022533  1
  C  C69  1  0.49999999  0.63282169  0.53757292  1
  C  C70  1  0.49999996  0.63392281  0.70375531  1
  C  C71  1  0.50000004  0.63181727  0.87193221  1
  C  C72  1  0.49999995  0.65269262  0.12296537  1
  C  C73  1  0.49999998  0.65251095  0.28822052  1
  C  C74  1  0.50000006  0.65225269  0.45214808  1
  C  C75  1  0.49999993  0.65884539  0.62124684  1
  C  C76  1  0.49999999  0.65679549  0.78970732  1
  C  C77  1  0.50000006  0.65496110  0.95584278  1
  C  C78  1  0.49999986  0.70847379  0.62521040  1
  C  C79  1  0.49999999  0.70470275  0.79319866  1
  C  C80  1  0.50000009  0.70163261  0.95641212  1
  C  C81  1  0.49999973  0.73896005  0.55116940  1
  C  C82  1  0.49999992  0.73004609  0.71177967  1
  C  C83  1  0.50000009  0.72712479  0.87872140  1
  C  C84  1  0.49999967  0.78560095  0.55861797  1
  C  C85  1  0.50000002  0.77857881  0.71934794  1
  C  C86  1  0.50000003  0.77623189  0.88567591  1
  C  C87  1  0.49999999  0.80593383  0.64173966  1
  C  C88  1  0.49999984  0.79975385  0.80337031  1
  C  C89  1  0.50000043  0.79998620  0.96583297  1
  H  H90  1  0.50000030  0.15277173  0.58122354  1
  H  H91  1  0.49999992  0.16420193  0.71690061  1
  H  H92  1  0.49999995  0.16499462  0.87641593  1
  H  H93  1  0.50000009  0.84238810  0.64924094  1
  H  H94  1  0.49999983  0.83642421  0.80498818  1
  H  H95  1  0.50000022  0.83664239  0.96360928  1
  H  H96  1  0.50000006  0.19129514  0.48570402  1
  H  H97  1  0.49999981  0.23804211  0.12636594  1
  H  H98  1  0.49999997  0.23787875  0.28940491  1
  H  H99  1  0.50000007  0.23857561  0.44828543  1
  H  H100  1  0.49999990  0.68917359  0.12643859  1
  H  H101  1  0.49999997  0.68920188  0.28874038  1
  H  H102  1  0.50000018  0.68773695  0.44281720  1
  H  H103  1  0.49999985  0.72867624  0.48181234  1
  H  H104  1  0.49999929  0.80564052  0.49677026  1
  H  H105  1  0.49999994  0.20645210  0.01933805  1
  H  H106  1  0.50000004  0.71916823  0.02064427  1
  H  H107  1  0.50000113  0.78466217  0.03268370  1
