# generated using pymatgen
data_H4C15
_symmetry_space_group_name_H-M   'P 1'
_cell_length_a   10.00000000
_cell_length_b   21.36688000
_cell_length_c   14.85886791
_cell_angle_alpha   90.00000000
_cell_angle_beta   90.00000000
_cell_angle_gamma   90.00000000
_symmetry_Int_Tables_number   1
_chemical_formula_structural   H4C15
_chemical_formula_sum   'H16 C60'
_cell_volume   3174.87647613
_cell_formula_units_Z   4
loop_
 _symmetry_equiv_pos_site_id
 _symmetry_equiv_pos_as_xyz
  1  'x, y, z'
loop_
 _atom_site_type_symbol
 _atom_site_label
 _atom_site_symmetry_multiplicity
 _atom_site_fract_x
 _atom_site_fract_y
 _atom_site_fract_z
 _atom_site_occupancy
  C  C0  1  0.49999880  0.78608295  0.55823793  1
  C  C1  1  0.49999898  0.76753112  0.71246214  1
  C  C2  1  0.49999937  0.76667561  0.87580404  1
  C  C3  1  0.50000128  0.21391704  0.55823788  1
  C  C4  1  0.50000110  0.23246888  0.71246212  1
  C  C5  1  0.50000058  0.23332437  0.87580405  1
  C  C6  1  0.50000141  0.25999205  0.62505587  1
  C  C7  1  0.50000110  0.26573943  0.79214345  1
  C  C8  1  0.50000033  0.26575523  0.95506970  1
  C  C9  1  0.50000043  0.33469945  0.12328644  1
  C  C10  1  0.50000038  0.33476938  0.28923868  1
  C  C11  1  0.50000032  0.33533606  0.45446025  1
  C  C12  1  0.50000117  0.32949218  0.62176988  1
  C  C13  1  0.50000107  0.33276494  0.79006390  1
  C  C14  1  0.50000037  0.33236158  0.95610783  1
  C  C15  1  0.50000027  0.36588518  0.04046943  1
  C  C16  1  0.50000047  0.36658231  0.20638304  1
  C  C17  1  0.50000024  0.36722774  0.37169254  1
  C  C18  1  0.50000064  0.36471899  0.53855964  1
  C  C19  1  0.50000103  0.36410708  0.70446533  1
  C  C20  1  0.50000056  0.36602370  0.87292455  1
  C  C21  1  0.50000014  0.43325966  0.03934933  1
  C  C22  1  0.50000028  0.43382897  0.20590116  1
  C  C23  1  0.50000020  0.43424320  0.37229815  1
  C  C24  1  0.50000037  0.43263678  0.53954340  1
  C  C25  1  0.50000053  0.43210816  0.70516699  1
  C  C26  1  0.50000025  0.43334210  0.87247831  1
  C  C27  1  0.50000013  0.46644669  0.12249009  1
  C  C28  1  0.50000014  0.46670824  0.28896193  1
  C  C29  1  0.50000013  0.46639511  0.45628349  1
  C  C30  1  0.50000024  0.46616029  0.62245085  1
  C  C31  1  0.50000019  0.46610055  0.78856357  1
  C  C32  1  0.50000007  0.46643120  0.95592420  1
  C  C33  1  0.49999991  0.53355332  0.12249011  1
  C  C34  1  0.49999987  0.53329178  0.28896192  1
  C  C35  1  0.49999986  0.53360492  0.45628348  1
  C  C36  1  0.49999975  0.53383974  0.62245087  1
  C  C37  1  0.49999981  0.53389949  0.78856355  1
  C  C38  1  0.49999993  0.53356883  0.95592418  1
  C  C39  1  0.49999987  0.56674035  0.03934931  1
  C  C40  1  0.49999973  0.56617103  0.20590115  1
  C  C41  1  0.49999978  0.56575680  0.37229817  1
  C  C42  1  0.49999962  0.56736324  0.53954341  1
  C  C43  1  0.49999948  0.56789188  0.70516699  1
  C  C44  1  0.49999975  0.56665792  0.87247831  1
  C  C45  1  0.49999971  0.63411482  0.04046944  1
  C  C46  1  0.49999951  0.63341769  0.20638304  1
  C  C47  1  0.49999975  0.63277226  0.37169252  1
  C  C48  1  0.49999937  0.63528102  0.53855964  1
  C  C49  1  0.49999899  0.63589294  0.70446531  1
  C  C50  1  0.49999943  0.63397630  0.87292452  1
  C  C51  1  0.49999953  0.66530055  0.12328641  1
  C  C52  1  0.49999961  0.66523062  0.28923867  1
  C  C53  1  0.49999969  0.66466394  0.45446026  1
  C  C54  1  0.49999886  0.67050780  0.62176989  1
  C  C55  1  0.49999894  0.66723506  0.79006389  1
  C  C56  1  0.49999960  0.66763841  0.95610781  1
  C  C57  1  0.49999868  0.74000793  0.62505590  1
  C  C58  1  0.49999891  0.73426055  0.79214345  1
  C  C59  1  0.49999962  0.73424477  0.95506967  1
  H  H60  1  0.49999867  0.83481530  0.58156474  1
  H  H61  1  0.49999946  0.81875805  0.71632644  1
  H  H62  1  0.49999938  0.81796867  0.87501142  1
  H  H63  1  0.50000145  0.16518470  0.58156477  1
  H  H64  1  0.50000061  0.18124190  0.71632641  1
  H  H65  1  0.50000057  0.18203129  0.87501146  1
  H  H66  1  0.49999900  0.78146100  0.48554669  1
  H  H67  1  0.50000083  0.21853901  0.48554662  1
  H  H68  1  0.50000054  0.28359688  0.12605898  1
  H  H69  1  0.50000045  0.28339559  0.28969967  1
  H  H70  1  0.50000017  0.28502561  0.45002111  1
  H  H71  1  0.49999937  0.71640309  0.12605898  1
  H  H72  1  0.49999957  0.71660439  0.28969967  1
  H  H73  1  0.49999990  0.71497435  0.45002113  1
  H  H74  1  0.50000014  0.23954264  0.01816498  1
  H  H75  1  0.49999982  0.76045735  0.01816493  1
