# generated using pymatgen
data_H7C18
_symmetry_space_group_name_H-M   'P 1'
_cell_length_a   10.00000000
_cell_length_b   29.89204000
_cell_length_c   14.92330862
_cell_angle_alpha   90.00000000
_cell_angle_beta   90.00000000
_cell_angle_gamma   90.00000000
_symmetry_Int_Tables_number   1
_chemical_formula_structural   H7C18
_chemical_formula_sum   'H28 C72'
_cell_volume   4460.88138226
_cell_formula_units_Z   4
loop_
 _symmetry_equiv_pos_site_id
 _symmetry_equiv_pos_as_xyz
  1  'x, y, z'
loop_
 _atom_site_type_symbol
 _atom_site_label
 _atom_site_symmetry_multiplicity
 _atom_site_fract_x
 _atom_site_fract_y
 _atom_site_fract_z
 _atom_site_occupancy
  C  C0  1  0.49999944  0.83515237  0.52718075  1
  C  C1  1  0.50000023  0.83686875  0.68949869  1
  C  C2  1  0.50000017  0.84194925  0.85417191  1
  C  C3  1  0.49999944  0.16484763  0.52718075  1
  C  C4  1  0.50000023  0.16313125  0.68949869  1
  C  C5  1  0.50000017  0.15805075  0.85417192  1
  C  C6  1  0.49999996  0.18771555  0.60806822  1
  C  C7  1  0.50000003  0.18370939  0.77403874  1
  C  C8  1  0.50000030  0.17911414  0.93707893  1
  C  C9  1  0.50000003  0.23690135  0.61483760  1
  C  C10  1  0.49999989  0.23186273  0.78025993  1
  C  C11  1  0.50000009  0.22589556  0.94296011  1
  C  C12  1  0.49999995  0.26399253  0.53786992  1
  C  C13  1  0.49999996  0.25833606  0.70018052  1
  C  C14  1  0.49999985  0.25287936  0.86529290  1
  C  C15  1  0.49999962  0.31016818  0.54381754  1
  C  C16  1  0.50000000  0.30645836  0.70633889  1
  C  C17  1  0.49999990  0.30151420  0.86986506  1
  C  C18  1  0.49999982  0.33245459  0.62736248  1
  C  C19  1  0.49999996  0.32874596  0.79215772  1
  C  C20  1  0.50000038  0.32376745  0.95219064  1
  C  C21  1  0.49999983  0.38099143  0.63463086  1
  C  C22  1  0.49999999  0.37735613  0.79934866  1
  C  C23  1  0.50000076  0.36964188  0.95860681  1
  C  C24  1  0.49999994  0.40634558  0.55691786  1
  C  C25  1  0.49999990  0.40350195  0.71922167  1
  C  C26  1  0.50000025  0.39986962  0.88464604  1
  C  C27  1  0.49999955  0.45507932  0.05787519  1
  C  C28  1  0.49999995  0.45256442  0.22346589  1
  C  C29  1  0.50000001  0.45340799  0.38893328  1
  C  C30  1  0.50000000  0.45277755  0.55667170  1
  C  C31  1  0.49999998  0.45161806  0.72272297  1
  C  C32  1  0.50000008  0.44960262  0.88926085  1
  C  C33  1  0.49999994  0.47614779  0.14202325  1
  C  C34  1  0.49999999  0.47572724  0.30524484  1
  C  C35  1  0.49999999  0.47597814  0.47043237  1
  C  C36  1  0.49999999  0.47595281  0.64027893  1
  C  C37  1  0.50000000  0.47511280  0.80827953  1
  C  C38  1  0.49999999  0.47534089  0.97340465  1
  C  C39  1  0.49999994  0.52385221  0.14202325  1
  C  C40  1  0.49999999  0.52427276  0.30524485  1
  C  C41  1  0.49999999  0.52402185  0.47043237  1
  C  C42  1  0.49999999  0.52404718  0.64027893  1
  C  C43  1  0.50000000  0.52488719  0.80827950  1
  C  C44  1  0.49999999  0.52465911  0.97340465  1
  C  C45  1  0.49999955  0.54492068  0.05787518  1
  C  C46  1  0.49999995  0.54743558  0.22346589  1
  C  C47  1  0.50000001  0.54659201  0.38893328  1
  C  C48  1  0.50000000  0.54722245  0.55667170  1
  C  C49  1  0.49999998  0.54838194  0.72272298  1
  C  C50  1  0.50000008  0.55039739  0.88926088  1
  C  C51  1  0.49999994  0.59365441  0.55691786  1
  C  C52  1  0.49999990  0.59649805  0.71922166  1
  C  C53  1  0.50000025  0.60013037  0.88464599  1
  C  C54  1  0.49999983  0.61900857  0.63463086  1
  C  C55  1  0.49999999  0.62264386  0.79934868  1
  C  C56  1  0.50000076  0.63035805  0.95860689  1
  C  C57  1  0.49999982  0.66754542  0.62736249  1
  C  C58  1  0.49999996  0.67125407  0.79215774  1
  C  C59  1  0.50000038  0.67623266  0.95219066  1
  C  C60  1  0.49999962  0.68983182  0.54381754  1
  C  C61  1  0.50000000  0.69354163  0.70633887  1
  C  C62  1  0.49999990  0.69848577  0.86986506  1
  C  C63  1  0.49999995  0.73600747  0.53786992  1
  C  C64  1  0.49999996  0.74166394  0.70018054  1
  C  C65  1  0.49999985  0.74712064  0.86529292  1
  C  C66  1  0.50000003  0.76309865  0.61483758  1
  C  C67  1  0.49999989  0.76813727  0.78025992  1
  C  C68  1  0.50000009  0.77410444  0.94296010  1
  C  C69  1  0.49999996  0.81228445  0.60806821  1
  C  C70  1  0.50000003  0.81629060  0.77403874  1
  C  C71  1  0.50000030  0.82088586  0.93707894  1
  H  H72  1  0.49999971  0.87183326  0.52686041  1
  H  H73  1  0.50000023  0.87353500  0.68596881  1
  H  H74  1  0.50000019  0.87856702  0.84962538  1
  H  H75  1  0.49999971  0.12816674  0.52686041  1
  H  H76  1  0.50000023  0.12646500  0.68596881  1
  H  H77  1  0.50000019  0.12143298  0.84962538  1
  H  H78  1  0.49999934  0.81851480  0.46194653  1
  H  H79  1  0.49999934  0.18148520  0.46194653  1
  H  H80  1  0.50000023  0.24857561  0.47136250  1
  H  H81  1  0.49999931  0.32886826  0.48092597  1
  H  H82  1  0.49999992  0.38892982  0.49309055  1
  H  H83  1  0.49999842  0.41954774  0.06440269  1
  H  H84  1  0.49999997  0.41583446  0.22340379  1
  H  H85  1  0.50000003  0.41686134  0.38626518  1
  H  H86  1  0.49999842  0.58045227  0.06440270  1
  H  H87  1  0.49999997  0.58416554  0.22340379  1
  H  H88  1  0.50000003  0.58313866  0.38626518  1
  H  H89  1  0.49999992  0.61107018  0.49309055  1
  H  H90  1  0.49999931  0.67113174  0.48092597  1
  H  H91  1  0.50000023  0.75142439  0.47136250  1
  H  H92  1  0.50000044  0.15913814  -0.00128479  1
  H  H93  1  0.49999998  0.24124465  0.00944331  1
  H  H94  1  0.50000058  0.30499817  0.01507917  1
  H  H95  1  0.50000195  0.37945704  0.02777460  1
  H  H96  1  0.50000195  0.62054296  0.02777456  1
  H  H97  1  0.50000058  0.69500181  0.01507914  1
  H  H98  1  0.49999998  0.75875535  0.00944331  1
  H  H99  1  0.50000044  0.84086186  -0.00128479  1
