# generated using pymatgen
data_H5C21
_symmetry_space_group_name_H-M   'P 1'
_cell_length_a   10.00000000
_cell_length_b   29.89204000
_cell_length_c   14.85537065
_cell_angle_alpha   90.00000000
_cell_angle_beta   90.00000000
_cell_angle_gamma   90.00000000
_symmetry_Int_Tables_number   1
_chemical_formula_structural   H5C21
_chemical_formula_sum   'H20 C84'
_cell_volume   4440.57333751
_cell_formula_units_Z   4
loop_
 _symmetry_equiv_pos_site_id
 _symmetry_equiv_pos_as_xyz
  1  'x, y, z'
loop_
 _atom_site_type_symbol
 _atom_site_label
 _atom_site_symmetry_multiplicity
 _atom_site_fract_x
 _atom_site_fract_y
 _atom_site_fract_z
 _atom_site_occupancy
  C  C0  1  0.49999968  0.19988387  0.53050397  1
  C  C1  1  0.50000020  0.19996113  0.69282771  1
  C  C2  1  0.50000006  0.19387050  0.85434298  1
  C  C3  1  0.49999992  0.22353753  0.61066966  1
  C  C4  1  0.50000010  0.22119192  0.77672950  1
  C  C5  1  0.50000034  0.21423365  0.93739950  1
  C  C6  1  0.49999992  0.27263394  0.61771021  1
  C  C7  1  0.50000001  0.26975188  0.78427655  1
  C  C8  1  0.50000041  0.26087996  0.94478208  1
  C  C9  1  0.49999997  0.29811565  0.54016893  1
  C  C10  1  0.49999997  0.29512551  0.70306227  1
  C  C11  1  0.50000011  0.29134934  0.87079744  1
  C  C12  1  0.49999984  0.34732461  0.04419300  1
  C  C13  1  0.49999996  0.34703160  0.20830901  1
  C  C14  1  0.50000008  0.34673913  0.37385208  1
  C  C15  1  0.49999997  0.34477624  0.54099888  1
  C  C16  1  0.50000001  0.34304773  0.70678088  1
  C  C17  1  0.50000003  0.34099125  0.87499333  1
  C  C18  1  0.49999993  0.37039288  0.12620319  1
  C  C19  1  0.50000003  0.36966079  0.29094908  1
  C  C20  1  0.50000000  0.36892934  0.45628707  1
  C  C21  1  0.49999997  0.36803349  0.62471034  1
  C  C22  1  0.50000002  0.36595322  0.79266398  1
  C  C23  1  0.49999999  0.36690493  0.95883403  1
  C  C24  1  0.49999997  0.41790666  0.12509224  1
  C  C25  1  0.50000002  0.41758575  0.29148280  1
  C  C26  1  0.50000002  0.41685867  0.45817871  1
  C  C27  1  0.49999999  0.41612007  0.62534982  1
  C  C28  1  0.50000003  0.41479566  0.79190302  1
  C  C29  1  0.50000003  0.41561643  0.95756769  1
  C  C30  1  0.49999998  0.44021410  0.04066727  1
  C  C31  1  0.49999999  0.44110537  0.20823323  1
  C  C32  1  0.50000004  0.44069998  0.37516500  1
  C  C33  1  0.50000002  0.44020502  0.54218796  1
  C  C34  1  0.50000002  0.43948687  0.70895621  1
  C  C35  1  0.50000003  0.43943817  0.87447086  1
  C  C36  1  0.49999996  0.48804020  0.04066314  1
  C  C37  1  0.50000000  0.48845956  0.20813213  1
  C  C38  1  0.50000003  0.48839705  0.37562480  1
  C  C39  1  0.50000005  0.48819136  0.54258516  1
  C  C40  1  0.50000002  0.48789372  0.70869666  1
  C  C41  1  0.49999997  0.48781212  0.87427107  1
  C  C42  1  0.49999997  0.51160793  0.12436473  1
  C  C43  1  0.50000001  0.51154210  0.29186951  1
  C  C44  1  0.50000004  0.51195793  0.45933678  1
  C  C45  1  0.50000003  0.51218661  0.62571355  1
  C  C46  1  0.49999998  0.51210549  0.79130135  1
  C  C47  1  0.49999996  0.51181256  0.95741954  1
  C  C48  1  0.49999996  0.55929854  0.12483277  1
  C  C49  1  0.50000002  0.55889294  0.29175199  1
  C  C50  1  0.50000002  0.55978905  0.45931616  1
  C  C51  1  0.49999998  0.56054595  0.62551083  1
  C  C52  1  0.49999998  0.56051646  0.79104601  1
  C  C53  1  0.49999999  0.55979720  0.95781082  1
  C  C54  1  0.49999999  0.58314974  0.04181519  1
  C  C55  1  0.49999998  0.58241348  0.20850213  1
  C  C56  1  0.50000003  0.58208638  0.37489581  1
  C  C57  1  0.49999997  0.58438893  0.54241544  1
  C  C58  1  0.49999997  0.58519600  0.70806925  1
  C  C59  1  0.50000001  0.58388098  0.87468957  1
  C  C60  1  0.50000000  0.63107266  0.04375054  1
  C  C61  1  0.49999996  0.63033319  0.20907139  1
  C  C62  1  0.50000007  0.62959832  0.37379805  1
  C  C63  1  0.50000001  0.63310218  0.54113022  1
  C  C64  1  0.49999998  0.63404213  0.70727015  1
  C  C65  1  0.50000003  0.63196261  0.87529991  1
  C  C66  1  0.49999992  0.65325717  0.12616906  1
  C  C67  1  0.50000004  0.65296206  0.29170400  1
  C  C68  1  0.50000016  0.65267252  0.45580308  1
  C  C69  1  0.49999996  0.65901869  0.62494700  1
  C  C70  1  0.49999999  0.65694486  0.79320612  1
  C  C71  1  0.50000003  0.65522247  0.95905848  1
  C  C72  1  0.49999989  0.70864994  0.62923235  1
  C  C73  1  0.50000003  0.70487328  0.79695173  1
  C  C74  1  0.50000002  0.70187828  0.95983051  1
  C  C75  1  0.49999959  0.73911411  0.55523806  1
  C  C76  1  0.49999998  0.73025172  0.71573460  1
  C  C77  1  0.50000008  0.72736710  0.88231423  1
  C  C78  1  0.49999966  0.78576208  0.56259391  1
  C  C79  1  0.49999990  0.77880908  0.72326976  1
  C  C80  1  0.50000008  0.77647122  0.88934991  1
  C  C81  1  0.49999994  0.80613650  0.64565596  1
  C  C82  1  0.49999980  0.80004249  0.80717865  1
  C  C83  1  0.50000032  0.80012237  0.96950423  1
  H  H84  1  0.50000005  0.16323773  0.53252056  1
  H  H85  1  0.50000027  0.16326725  0.69129244  1
  H  H86  1  0.49999989  0.15739544  0.84700214  1
  H  H87  1  0.50000011  0.84261343  0.65301120  1
  H  H88  1  0.49999973  0.83673341  0.80871073  1
  H  H89  1  0.49999995  0.83676308  0.96749338  1
  H  H90  1  0.49999901  0.21529449  0.46381549  1
  H  H91  1  0.49999996  0.28054746  0.47600849  1
  H  H92  1  0.49999948  0.31183736  0.05372024  1
  H  H93  1  0.49999993  0.31035229  0.20775392  1
  H  H94  1  0.50000016  0.31022624  0.37036547  1
  H  H95  1  0.49999984  0.68977100  0.12962970  1
  H  H96  1  0.50000006  0.68964612  0.29223256  1
  H  H97  1  0.50000051  0.68816332  0.44629626  1
  H  H98  1  0.49999904  0.72876540  0.48597300  1
  H  H99  1  0.49999976  0.80580875  0.50074536  1
  H  H100  1  0.50000024  0.19420042  -0.00075442  1
  H  H101  1  0.50000096  0.27123143  0.01402880  1
  H  H102  1  0.50000004  0.71944739  0.02396185  1
  H  H103  1  0.50000099  0.78471581  0.03619605  1
