# generated using pymatgen
data_H5C21
_symmetry_space_group_name_H-M   'P 1'
_cell_length_a   10.00000000
_cell_length_b   29.89204000
_cell_length_c   14.83745444
_cell_angle_alpha   90.00000000
_cell_angle_beta   90.00000000
_cell_angle_gamma   90.00000000
_symmetry_Int_Tables_number   1
_chemical_formula_structural   H5C21
_chemical_formula_sum   'H20 C84'
_cell_volume   4435.21781572
_cell_formula_units_Z   4
loop_
 _symmetry_equiv_pos_site_id
 _symmetry_equiv_pos_as_xyz
  1  'x, y, z'
loop_
 _atom_site_type_symbol
 _atom_site_label
 _atom_site_symmetry_multiplicity
 _atom_site_fract_x
 _atom_site_fract_y
 _atom_site_fract_z
 _atom_site_occupancy
  C  C0  1  0.49999739  0.20081857  0.51795878  1
  C  C1  1  0.49999957  0.19982647  0.68067199  1
  C  C2  1  0.50000137  0.19481228  0.84613917  1
  C  C3  1  0.49999851  0.22426317  0.59861686  1
  C  C4  1  0.50000030  0.22044173  0.76555728  1
  C  C5  1  0.50000237  0.21586789  0.92947727  1
  C  C6  1  0.49999858  0.27346411  0.60500145  1
  C  C7  1  0.50000003  0.26855746  0.77158271  1
  C  C8  1  0.50000193  0.26262908  0.93525285  1
  C  C9  1  0.49999775  0.30049058  0.52745485  1
  C  C10  1  0.49999933  0.29493619  0.69086665  1
  C  C11  1  0.50000053  0.28957946  0.85711906  1
  C  C12  1  0.49999769  0.34668297  0.53336600  1
  C  C13  1  0.49999931  0.34302175  0.69701035  1
  C  C14  1  0.50000044  0.33813350  0.86186950  1
  C  C15  1  0.49999866  0.36896396  0.61740091  1
  C  C16  1  0.49999981  0.36517778  0.78350608  1
  C  C17  1  0.50000327  0.36035264  0.94486971  1
  C  C18  1  0.49999907  0.41746992  0.62468816  1
  C  C19  1  0.49999983  0.41361785  0.79070603  1
  C  C20  1  0.50000541  0.40617567  0.95123603  1
  C  C21  1  0.49999947  0.44324684  0.54707582  1
  C  C22  1  0.49999936  0.43967675  0.71002518  1
  C  C23  1  0.50000157  0.43607857  0.87659725  1
  C  C24  1  0.49999615  0.49208491  0.05208277  1
  C  C25  1  0.49999919  0.49199556  0.21599887  1
  C  C26  1  0.50000014  0.49187808  0.38108164  1
  C  C27  1  0.49999978  0.48972184  0.54808112  1
  C  C28  1  0.49999981  0.48756992  0.71410383  1
  C  C29  1  0.50000019  0.48544081  0.88189078  1
  C  C30  1  0.49999890  0.51539675  0.13397822  1
  C  C31  1  0.50000012  0.51486812  0.29828237  1
  C  C32  1  0.50000001  0.51398481  0.46336007  1
  C  C33  1  0.49999981  0.51269566  0.63208807  1
  C  C34  1  0.49999995  0.51051290  0.79983621  1
  C  C35  1  0.49999927  0.51129772  0.96650160  1
  C  C36  1  0.50000047  0.56298019  0.13308595  1
  C  C37  1  0.50000029  0.56284218  0.29883121  1
  C  C38  1  0.50000000  0.56186580  0.46514099  1
  C  C39  1  0.49999985  0.56066189  0.63256971  1
  C  C40  1  0.49999997  0.55921091  0.79953541  1
  C  C41  1  0.50000055  0.56005397  0.96551446  1
  C  C42  1  0.50000042  0.58502507  0.04848696  1
  C  C43  1  0.50000051  0.58657111  0.21598400  1
  C  C44  1  0.50000015  0.58597529  0.38233333  1
  C  C45  1  0.49999992  0.58485976  0.54924051  1
  C  C46  1  0.49999989  0.58374989  0.71645497  1
  C  C47  1  0.50000042  0.58369699  0.88240281  1
  C  C48  1  0.50000025  0.63299920  0.04870880  1
  C  C49  1  0.50000029  0.63413928  0.21599372  1
  C  C50  1  0.50000011  0.63376560  0.38268380  1
  C  C51  1  0.49999999  0.63275711  0.54946199  1
  C  C52  1  0.50000000  0.63196561  0.71634309  1
  C  C53  1  0.50000025  0.63198534  0.88249383  1
  C  C54  1  0.50000017  0.65713463  0.13206621  1
  C  C55  1  0.50000011  0.65758703  0.29951433  1
  C  C56  1  0.50000003  0.65697851  0.46634671  1
  C  C57  1  0.50000001  0.65607765  0.63317303  1
  C  C58  1  0.50000006  0.65589865  0.79942744  1
  C  C59  1  0.50000017  0.65635551  0.96539549  1
  C  C60  1  0.50000002  0.70507813  0.13241213  1
  C  C61  1  0.49999998  0.70540512  0.29952276  1
  C  C62  1  0.49999999  0.70489497  0.46640214  1
  C  C63  1  0.50000004  0.70416571  0.63310989  1
  C  C64  1  0.50000003  0.70403007  0.79955462  1
  C  C65  1  0.50000004  0.70443990  0.96578419  1
  C  C66  1  0.49999998  0.72839143  0.04896412  1
  C  C67  1  0.49999995  0.72881492  0.21586973  1
  C  C68  1  0.49999994  0.72875901  0.38313810  1
  C  C69  1  0.50000001  0.72817153  0.54999030  1
  C  C70  1  0.50000005  0.72776554  0.71640647  1
  C  C71  1  0.50000003  0.72794961  0.88260511  1
  C  C72  1  0.49999993  0.77677391  0.04906469  1
  C  C73  1  0.49999986  0.77718827  0.21604398  1
  C  C74  1  0.49999990  0.77712643  0.38326645  1
  C  C75  1  0.50000001  0.77654536  0.55005768  1
  C  C76  1  0.50000009  0.77619961  0.71639876  1
  C  C77  1  0.50000006  0.77636054  0.88261506  1
  C  C78  1  0.49999985  0.79975629  0.13237150  1
  C  C79  1  0.49999983  0.79990533  0.29975828  1
  C  C80  1  0.49999995  0.79960713  0.46698395  1
  C  C81  1  0.50000007  0.79917810  0.63342040  1
  C  C82  1  0.50000012  0.79909590  0.79943230  1
  C  C83  1  0.50000000  0.79937713  0.96563358  1
  H  H84  1  0.49999792  0.16413294  0.51946442  1
  H  H85  1  0.49999960  0.16315329  0.67735072  1
  H  H86  1  0.50000157  0.15821571  0.84134690  1
  H  H87  1  0.49999985  0.83646712  0.13222999  1
  H  H88  1  0.49999982  0.83661331  0.30003744  1
  H  H89  1  0.49999993  0.83630218  0.46793034  1
  H  H90  1  0.50000008  0.83586396  0.63390203  1
  H  H91  1  0.50000015  0.83578160  0.79921165  1
  H  H92  1  0.50000003  0.83607203  0.96512953  1
  H  H93  1  0.49999634  0.21673407  0.45166586  1
  H  H94  1  0.49999719  0.28496762  0.46063962  1
  H  H95  1  0.49999693  0.36550647  0.47023874  1
  H  H96  1  0.49999957  0.42624286  0.48244778  1
  H  H97  1  0.49998923  0.45664190  0.06233308  1
  H  H98  1  0.49999903  0.45528351  0.21566381  1
  H  H99  1  0.50000009  0.45539869  0.37735815  1
  H  H100  1  0.50000355  0.19590619  -0.00855842  1
  H  H101  1  0.50000299  0.27800468  0.00204307  1
  H  H102  1  0.50000485  0.34154363  0.00802749  1
  H  H103  1  0.50001278  0.41689717  0.02020738  1
