# generated using pymatgen
data_H2C5
_symmetry_space_group_name_H-M   'P 1'
_cell_length_a   10.00000000
_cell_length_b   25.62946000
_cell_length_c   14.96287583
_cell_angle_alpha   90.00000000
_cell_angle_beta   90.00000000
_cell_angle_gamma   90.00000000
_symmetry_Int_Tables_number   1
_chemical_formula_structural   H2C5
_chemical_formula_sum   'H24 C60'
_cell_volume   3834.90427625
_cell_formula_units_Z   12
loop_
 _symmetry_equiv_pos_site_id
 _symmetry_equiv_pos_as_xyz
  1  'x, y, z'
loop_
 _atom_site_type_symbol
 _atom_site_label
 _atom_site_symmetry_multiplicity
 _atom_site_fract_x
 _atom_site_fract_y
 _atom_site_fract_z
 _atom_site_occupancy
  C  C0  1  0.50000201  0.80557752  0.52529733  1
  C  C1  1  0.50000110  0.80794781  0.68713301  1
  C  C2  1  0.50000092  0.81392899  0.85140851  1
  C  C3  1  0.49999602  0.19284474  0.54240339  1
  C  C4  1  0.49999442  0.19244360  0.70358394  1
  C  C5  1  0.49999509  0.18505097  0.86348572  1
  C  C6  1  0.49999485  0.22015288  0.62236375  1
  C  C7  1  0.49999447  0.21717231  0.78696035  1
  C  C8  1  0.49999957  0.20849524  0.94608143  1
  C  C9  1  0.49999521  0.27734360  0.63022036  1
  C  C10  1  0.49999487  0.27377181  0.79531328  1
  C  C11  1  0.50000193  0.26287369  0.95392854  1
  C  C12  1  0.49999645  0.30667433  0.55295683  1
  C  C13  1  0.49999572  0.30355375  0.71509481  1
  C  C14  1  0.49999647  0.29884764  0.88118598  1
  C  C15  1  0.49998988  0.36279926  0.05443704  1
  C  C16  1  0.49999328  0.36029935  0.22051385  1
  C  C17  1  0.49999971  0.36166884  0.38558084  1
  C  C18  1  0.49999834  0.36096125  0.55286602  1
  C  C19  1  0.49999829  0.35952846  0.71883340  1
  C  C20  1  0.49999563  0.35699586  0.88593301  1
  C  C21  1  0.49999377  0.38731813  0.13864936  1
  C  C22  1  0.49999869  0.38759120  0.30200812  1
  C  C23  1  0.49999931  0.38798645  0.46694066  1
  C  C24  1  0.49999883  0.38785810  0.63652914  1
  C  C25  1  0.49999925  0.38657906  0.80478129  1
  C  C26  1  0.49999412  0.38673885  0.97014333  1
  C  C27  1  0.50001227  0.44299404  0.13865156  1
  C  C28  1  0.50000147  0.44422635  0.30200621  1
  C  C29  1  0.49999892  0.44408363  0.46703620  1
  C  C30  1  0.49999993  0.44391477  0.63687109  1
  C  C31  1  0.50000063  0.44455667  0.80489050  1
  C  C32  1  0.50000921  0.44426176  0.97020825  1
  C  C33  1  0.50003722  0.46770654  0.05476306  1
  C  C34  1  0.50001168  0.47071015  0.21988480  1
  C  C35  1  0.49999931  0.47038129  0.38563387  1
  C  C36  1  0.50000011  0.47090794  0.55342671  1
  C  C37  1  0.50000134  0.47201265  0.71949652  1
  C  C38  1  0.50000134  0.47413769  0.88588309  1
  C  C39  1  0.50000208  0.52498190  0.55411500  1
  C  C40  1  0.50000689  0.52806029  0.71624361  1
  C  C41  1  0.49999215  0.53206237  0.88114857  1
  C  C42  1  0.50000624  0.55427552  0.63193867  1
  C  C43  1  0.50000702  0.55843238  0.79632930  1
  C  C44  1  0.49996203  0.56716436  0.95492491  1
  C  C45  1  0.50000625  0.61076973  0.62513175  1
  C  C46  1  0.50000981  0.61504626  0.78948598  1
  C  C47  1  0.49998755  0.62070173  0.94896354  1
  C  C48  1  0.50000341  0.63659688  0.54184416  1
  C  C49  1  0.50000805  0.64094814  0.70396017  1
  C  C50  1  0.50001099  0.64676255  0.86698252  1
  C  C51  1  0.50000225  0.69036896  0.53582341  1
  C  C52  1  0.50000628  0.69699761  0.69781356  1
  C  C53  1  0.50000989  0.70344864  0.86245497  1
  C  C54  1  0.50000348  0.72188420  0.61267583  1
  C  C55  1  0.50000656  0.72792691  0.77762349  1
  C  C56  1  0.50000624  0.73488352  0.93994731  1
  C  C57  1  0.50000212  0.77914965  0.60608936  1
  C  C58  1  0.50000254  0.78404234  0.77148289  1
  C  C59  1  0.50000231  0.78942708  0.93411364  1
  H  H60  1  0.50000043  0.84831655  0.52467390  1
  H  H61  1  0.49999991  0.85068672  0.68319355  1
  H  H62  1  0.49999839  0.85660675  0.84672429  1
  H  H63  1  0.49999788  0.15009036  0.54402796  1
  H  H64  1  0.49999465  0.14966365  0.70165962  1
  H  H65  1  0.49999463  0.14258440  0.85515976  1
  H  H66  1  0.50000378  0.78594844  0.46047523  1
  H  H67  1  0.49999572  0.21091752  0.47624115  1
  H  H68  1  0.49999583  0.28612407  0.48939168  1
  H  H69  1  0.49998332  0.32125297  0.06048954  1
  H  H70  1  0.49999084  0.31746125  0.22145390  1
  H  H71  1  0.50000062  0.31907416  0.38291516  1
  H  H72  1  0.50010405  0.50912628  0.06218066  1
  H  H73  1  0.50001443  0.51353291  0.21887014  1
  H  H74  1  0.49999975  0.51303417  0.38289537  1
  H  H75  1  0.50000032  0.54531607  0.49051537  1
  H  H76  1  0.50000228  0.61444315  0.47952860  1
  H  H77  1  0.50000019  0.70810895  0.46935567  1
  H  H78  1  0.50000221  0.18523050  0.00755003  1
  H  H79  1  0.50001179  0.27413000  0.02303536  1
  H  H80  1  0.49989190  0.55509691  0.02345169  1
  H  H81  1  0.49997479  0.64234459  0.01188162  1
  H  H82  1  0.50000603  0.71711716  0.00633285  1
  H  H83  1  0.50000048  0.81275477  -0.00448088  1
