# generated using pymatgen
data_H11C27
_symmetry_space_group_name_H-M   'P 1'
_cell_length_a   10.00000000
_cell_length_b   25.62946000
_cell_length_c   14.91604662
_cell_angle_alpha   90.00000000
_cell_angle_beta   90.00000000
_cell_angle_gamma   90.00000000
_symmetry_Int_Tables_number   1
_chemical_formula_structural   H11C27
_chemical_formula_sum   'H22 C54'
_cell_volume   3822.90220112
_cell_formula_units_Z   2
loop_
 _symmetry_equiv_pos_site_id
 _symmetry_equiv_pos_as_xyz
  1  'x, y, z'
loop_
 _atom_site_type_symbol
 _atom_site_label
 _atom_site_symmetry_multiplicity
 _atom_site_fract_x
 _atom_site_fract_y
 _atom_site_fract_z
 _atom_site_occupancy
  C  C0  1  0.50000162  0.23615880  0.52192333  1
  C  C1  1  0.50000071  0.23341718  0.68463677  1
  C  C2  1  0.49999892  0.22740290  0.84927210  1
  C  C3  1  0.50000134  0.26228335  0.60334940  1
  C  C4  1  0.50000063  0.25745000  0.76924487  1
  C  C5  1  0.49999993  0.25173033  0.93237546  1
  C  C6  1  0.50000116  0.31964018  0.61033748  1
  C  C7  1  0.50000193  0.31359984  0.77565998  1
  C  C8  1  0.50000258  0.30627023  0.93837691  1
  C  C9  1  0.49999939  0.35123331  0.53338086  1
  C  C10  1  0.50000173  0.34459577  0.69569279  1
  C  C11  1  0.50000289  0.33794333  0.86089905  1
  C  C12  1  0.49999875  0.40505314  0.53940882  1
  C  C13  1  0.50000112  0.40070018  0.70200593  1
  C  C14  1  0.50000288  0.39467069  0.86586538  1
  C  C15  1  0.49999983  0.43101826  0.62289914  1
  C  C16  1  0.50000137  0.42645755  0.78805964  1
  C  C17  1  0.50000321  0.42047014  0.94848194  1
  C  C18  1  0.49999947  0.48766050  0.62978243  1
  C  C19  1  0.50000014  0.48306357  0.79507069  1
  C  C20  1  0.50000172  0.47403416  0.95468518  1
  C  C21  1  0.49999972  0.51742495  0.55201222  1
  C  C22  1  0.49999929  0.51358030  0.71472874  1
  C  C23  1  0.50000016  0.50906299  0.88058463  1
  C  C24  1  0.49999923  0.57431898  0.05606155  1
  C  C25  1  0.49999910  0.57377106  0.22046333  1
  C  C26  1  0.49999924  0.57425707  0.38535573  1
  C  C27  1  0.49999926  0.57169839  0.55223420  1
  C  C28  1  0.49999884  0.56960705  0.71851155  1
  C  C29  1  0.49999932  0.56684512  0.88607488  1
  C  C30  1  0.49999957  0.60079922  0.13850933  1
  C  C31  1  0.49999966  0.60068774  0.30201221  1
  C  C32  1  0.49999954  0.59998867  0.46709748  1
  C  C33  1  0.49999884  0.59825971  0.63590898  1
  C  C34  1  0.49999897  0.59634444  0.80477783  1
  C  C35  1  0.49999939  0.59678040  0.97059010  1
  C  C36  1  0.50000034  0.65670675  0.13773828  1
  C  C37  1  0.50000065  0.65731822  0.30189345  1
  C  C38  1  0.50000002  0.65638900  0.46771419  1
  C  C39  1  0.49999903  0.65445923  0.63608267  1
  C  C40  1  0.49999897  0.65390622  0.80515398  1
  C  C41  1  0.49999950  0.65410838  0.97020853  1
  C  C42  1  0.50000003  0.68041395  0.05269507  1
  C  C43  1  0.50000108  0.68411871  0.21946304  1
  C  C44  1  0.50000079  0.68307601  0.38580425  1
  C  C45  1  0.49999957  0.68309358  0.55329929  1
  C  C46  1  0.49999899  0.68077009  0.71979729  1
  C  C47  1  0.49999917  0.68310828  0.88697685  1
  C  C48  1  0.49999938  0.73862056  0.55587637  1
  C  C49  1  0.49999875  0.73675519  0.71835008  1
  C  C50  1  0.49999887  0.74133342  0.88421535  1
  C  C51  1  0.49999877  0.76458263  0.63578552  1
  C  C52  1  0.49999847  0.76441071  0.79741852  1
  C  C53  1  0.49999884  0.78037867  0.94969852  1
  H  H54  1  0.50000152  0.19340432  0.52043368  1
  H  H55  1  0.50000012  0.19062844  0.68098767  1
  H  H56  1  0.49999667  0.18474550  0.84422498  1
  H  H57  1  0.49999830  0.80730881  0.63848977  1
  H  H58  1  0.49999843  0.80713609  0.79368041  1
  H  H59  1  0.49999758  0.82073137  0.92505588  1
  H  H60  1  0.50000211  0.25616362  0.45716403  1
  H  H61  1  0.49999822  0.33325526  0.46688575  1
  H  H62  1  0.49999717  0.42708221  0.47673838  1
  H  H63  1  0.50000070  0.49728560  0.48796502  1
  H  H64  1  0.49999873  0.53292877  0.06563748  1
  H  H65  1  0.49999853  0.53094685  0.22048317  1
  H  H66  1  0.49999833  0.53163746  0.38202958  1
  H  H67  1  0.50000011  0.72238071  0.05309795  1
  H  H68  1  0.50000170  0.72693479  0.21910105  1
  H  H69  1  0.50000148  0.72571212  0.38424404  1
  H  H70  1  0.49999956  0.76107197  0.49361030  1
  H  H71  1  0.49999865  0.22829945  -0.00609822  1
  H  H72  1  0.50000323  0.32390317  0.00504700  1
  H  H73  1  0.50000468  0.39829736  0.01114139  1
  H  H74  1  0.50000190  0.48655551  0.02328702  1
  H  H75  1  0.49999965  0.77807569  0.02229149  1
