# generated using pymatgen
data_H3C13
_symmetry_space_group_name_H-M   'P 1'
_cell_length_a   10.00000000
_cell_length_b   25.62946000
_cell_length_c   14.83566119
_cell_angle_alpha   90.00000000
_cell_angle_beta   90.00000000
_cell_angle_gamma   90.00000000
_symmetry_Int_Tables_number   1
_chemical_formula_structural   H3C13
_chemical_formula_sum   'H18 C78'
_cell_volume   3802.29985016
_cell_formula_units_Z   6
loop_
 _symmetry_equiv_pos_site_id
 _symmetry_equiv_pos_as_xyz
  1  'x, y, z'
loop_
 _atom_site_type_symbol
 _atom_site_label
 _atom_site_symmetry_multiplicity
 _atom_site_fract_x
 _atom_site_fract_y
 _atom_site_fract_z
 _atom_site_occupancy
  C  C0  1  0.49999937  0.82089862  0.56889134  1
  C  C1  1  0.50000035  0.81096850  0.73079401  1
  C  C2  1  0.50000122  0.80535110  0.89513997  1
  C  C3  1  0.49999818  0.19255572  0.03614310  1
  C  C4  1  0.49999750  0.19223910  0.20329869  1
  C  C5  1  0.49999812  0.19234485  0.37053311  1
  C  C6  1  0.49999997  0.19275889  0.53728697  1
  C  C7  1  0.50000059  0.19310218  0.70358681  1
  C  C8  1  0.49999914  0.19300834  0.86971420  1
  C  C9  1  0.49999851  0.21882472  0.11977928  1
  C  C10  1  0.49999804  0.21871993  0.28692668  1
  C  C11  1  0.49999887  0.21912575  0.45381781  1
  C  C12  1  0.50000013  0.21961439  0.62034402  1
  C  C13  1  0.50000002  0.21978560  0.78667219  1
  C  C14  1  0.49999921  0.21948554  0.95300924  1
  C  C15  1  0.49999993  0.27521197  0.11973541  1
  C  C16  1  0.49999904  0.27514162  0.28697285  1
  C  C17  1  0.49999888  0.27555511  0.45386970  1
  C  C18  1  0.49999957  0.27608353  0.62028092  1
  C  C19  1  0.50000007  0.27627986  0.78656716  1
  C  C20  1  0.50000030  0.27590093  0.95295097  1
  C  C21  1  0.50000073  0.30306957  0.03646019  1
  C  C22  1  0.50000014  0.30245609  0.20328412  1
  C  C23  1  0.49999926  0.30281293  0.37044300  1
  C  C24  1  0.49999927  0.30353371  0.53707522  1
  C  C25  1  0.49999974  0.30395097  0.70335843  1
  C  C26  1  0.50000047  0.30385328  0.86977157  1
  C  C27  1  0.50000109  0.35897864  0.03626378  1
  C  C28  1  0.50000118  0.35821954  0.20316726  1
  C  C29  1  0.50000055  0.35871894  0.37069845  1
  C  C30  1  0.49999978  0.35959598  0.53737936  1
  C  C31  1  0.49999970  0.36011982  0.70333941  1
  C  C32  1  0.50000049  0.35998169  0.86949181  1
  C  C33  1  0.50000140  0.38602169  0.11991974  1
  C  C34  1  0.50000161  0.38553302  0.28670343  1
  C  C35  1  0.50000066  0.38686672  0.45407606  1
  C  C36  1  0.49999982  0.38798664  0.62022876  1
  C  C37  1  0.49999995  0.38807875  0.78633561  1
  C  C38  1  0.50000065  0.38721318  0.95312593  1
  C  C39  1  0.50000143  0.44176785  0.12011762  1
  C  C40  1  0.50000238  0.44100394  0.28659766  1
  C  C41  1  0.50000149  0.44281962  0.45420197  1
  C  C42  1  0.50000013  0.44435622  0.62026830  1
  C  C43  1  0.49999954  0.44435300  0.78611562  1
  C  C44  1  0.50000016  0.44312948  0.95321243  1
  C  C45  1  0.50000061  0.46998567  0.03729095  1
  C  C46  1  0.50000199  0.46869777  0.20364958  1
  C  C47  1  0.50000224  0.46846526  0.36952355  1
  C  C48  1  0.50000081  0.47189388  0.53712482  1
  C  C49  1  0.49999951  0.47300776  0.70297939  1
  C  C50  1  0.49999946  0.47136510  0.86984773  1
  C  C51  1  0.50000032  0.52586863  0.03892754  1
  C  C52  1  0.50000124  0.52466351  0.20406093  1
  C  C53  1  0.50000064  0.52393382  0.36845907  1
  C  C54  1  0.49999971  0.52867156  0.53591612  1
  C  C55  1  0.49999945  0.52983732  0.70232208  1
  C  C56  1  0.49999939  0.52734628  0.87008662  1
  C  C57  1  0.50000040  0.55161457  0.12131448  1
  C  C58  1  0.50000028  0.55122402  0.28643905  1
  C  C59  1  0.49999806  0.55107750  0.45031321  1
  C  C60  1  0.49999971  0.55894435  0.62009626  1
  C  C61  1  0.49999940  0.55668813  0.78793133  1
  C  C62  1  0.49999979  0.55419507  0.95407475  1
  C  C63  1  0.50000022  0.61659771  0.62461351  1
  C  C64  1  0.49999949  0.61255570  0.79157831  1
  C  C65  1  0.50000014  0.60843460  0.95486300  1
  C  C66  1  0.50000167  0.65157285  0.54993906  1
  C  C67  1  0.49999947  0.64273188  0.71047244  1
  C  C68  1  0.49999997  0.63835688  0.87703765  1
  C  C69  1  0.50000037  0.70520096  0.55621206  1
  C  C70  1  0.49999947  0.69928463  0.71725209  1
  C  C71  1  0.50000039  0.69499594  0.88405405  1
  C  C72  1  0.49999931  0.73115217  0.63892011  1
  C  C73  1  0.49999990  0.72455493  0.80381604  1
  C  C74  1  0.50000116  0.72116691  0.96778470  1
  C  C75  1  0.49999958  0.78845993  0.64369008  1
  C  C76  1  0.50000035  0.78080606  0.80944378  1
  C  C77  1  0.50000161  0.77568915  0.97321535  1
  H  H78  1  0.49999973  0.86328045  0.57889350  1
  H  H79  1  0.50000103  0.85362596  0.73683073  1
  H  H80  1  0.50000171  0.84809001  0.89780192  1
  H  H81  1  0.49999721  0.14974685  0.03538718  1
  H  H82  1  0.49999673  0.14943201  0.20308763  1
  H  H83  1  0.49999808  0.14952871  0.37088218  1
  H  H84  1  0.50000048  0.14996054  0.53774433  1
  H  H85  1  0.50000098  0.15030448  0.70376657  1
  H  H86  1  0.49999830  0.15019769  0.86918931  1
  H  H87  1  0.49999898  0.80694762  0.49931429  1
  H  H88  1  0.49999937  0.59419695  0.12518553  1
  H  H89  1  0.49999901  0.59402232  0.28695596  1
  H  H90  1  0.49999303  0.59239012  0.44023010  1
  H  H91  1  0.50000541  0.63920222  0.48083044  1
  H  H92  1  0.50000119  0.72738596  0.49320382  1
  H  H93  1  0.50000082  0.62844762  0.01944250  1
  H  H94  1  0.50000117  0.69902860  0.03065460  1
  H  H95  1  0.50000203  0.79463890  0.03939952  1
