# generated using pymatgen
data_H5C24
_symmetry_space_group_name_H-M   'P 1'
_cell_length_a   10.00000000
_cell_length_b   29.89204000
_cell_length_c   14.85106389
_cell_angle_alpha   90.00000000
_cell_angle_beta   90.00000000
_cell_angle_gamma   90.00000000
_symmetry_Int_Tables_number   1
_chemical_formula_structural   H5C24
_chemical_formula_sum   'H20 C96'
_cell_volume   4439.28595836
_cell_formula_units_Z   4
loop_
 _symmetry_equiv_pos_site_id
 _symmetry_equiv_pos_as_xyz
  1  'x, y, z'
loop_
 _atom_site_type_symbol
 _atom_site_label
 _atom_site_symmetry_multiplicity
 _atom_site_fract_x
 _atom_site_fract_y
 _atom_site_fract_z
 _atom_site_occupancy
  C  C0  1  0.49999978  0.83656833  0.53525315  1
  C  C1  1  0.50000023  0.83589136  0.69740026  1
  C  C2  1  0.49999996  0.84187777  0.85897623  1
  C  C3  1  0.49999978  0.16343164  0.53525320  1
  C  C4  1  0.50000023  0.16410871  0.69740021  1
  C  C5  1  0.49999996  0.15812232  0.85897637  1
  C  C6  1  0.50000007  0.18753180  0.61498658  1
  C  C7  1  0.50000002  0.18540070  0.78128590  1
  C  C8  1  0.50000015  0.17849992  0.94203068  1
  C  C9  1  0.49999996  0.23668080  0.62179596  1
  C  C10  1  0.50000007  0.23391513  0.78874967  1
  C  C11  1  0.50000017  0.22511565  0.94943964  1
  C  C12  1  0.49999997  0.26220304  0.54420326  1
  C  C13  1  0.49999999  0.25917302  0.70727698  1
  C  C14  1  0.50000009  0.25551577  0.87528490  1
  C  C15  1  0.49999997  0.31161466  0.04817364  1
  C  C16  1  0.50000000  0.31123129  0.21209860  1
  C  C17  1  0.49999999  0.31099067  0.37759824  1
  C  C18  1  0.49999997  0.30887759  0.54481450  1
  C  C19  1  0.49999998  0.30708692  0.71079789  1
  C  C20  1  0.50000003  0.30509508  0.87919007  1
  C  C21  1  0.50000000  0.33471310  0.13015371  1
  C  C22  1  0.50000000  0.33392409  0.29467967  1
  C  C23  1  0.49999998  0.33312511  0.46009514  1
  C  C24  1  0.49999997  0.33209315  0.62863695  1
  C  C25  1  0.50000000  0.32998300  0.79669427  1
  C  C26  1  0.49999999  0.33109720  0.96285017  1
  C  C27  1  0.50000000  0.38226401  0.12896486  1
  C  C28  1  0.49999999  0.38189030  0.29512046  1
  C  C29  1  0.49999999  0.38103749  0.46183792  1
  C  C30  1  0.50000000  0.38014567  0.62913742  1
  C  C31  1  0.49999998  0.37876289  0.79593297  1
  C  C32  1  0.49999999  0.37968733  0.96150989  1
  C  C33  1  0.49999999  0.40446093  0.04442520  1
  C  C34  1  0.49999999  0.40564234  0.21201723  1
  C  C35  1  0.50000000  0.40496904  0.37872219  1
  C  C36  1  0.50000000  0.40431866  0.54584634  1
  C  C37  1  0.49999998  0.40340402  0.71288909  1
  C  C38  1  0.49999999  0.40341933  0.87848464  1
  C  C39  1  0.49999998  0.45233072  0.04417357  1
  C  C40  1  0.49999998  0.45309719  0.21165472  1
  C  C41  1  0.50000000  0.45266143  0.37902629  1
  C  C42  1  0.50000000  0.45222420  0.54602253  1
  C  C43  1  0.49999999  0.45171876  0.71253852  1
  C  C44  1  0.49999999  0.45174022  0.87813800  1
  C  C45  1  0.49999998  0.47615415  0.12757753  1
  C  C46  1  0.49999999  0.47625842  0.29554134  1
  C  C47  1  0.50000001  0.47611907  0.46266189  1
  C  C48  1  0.50000000  0.47594595  0.62952886  1
  C  C49  1  0.49999999  0.47591049  0.79524974  1
  C  C50  1  0.49999998  0.47598033  0.96086224  1
  C  C51  1  0.49999998  0.52384585  0.12757753  1
  C  C52  1  0.49999999  0.52374157  0.29554132  1
  C  C53  1  0.50000001  0.52388092  0.46266187  1
  C  C54  1  0.50000000  0.52405404  0.62952888  1
  C  C55  1  0.49999999  0.52408950  0.79524975  1
  C  C56  1  0.49999998  0.52401967  0.96086226  1
  C  C57  1  0.49999998  0.54766928  0.04417358  1
  C  C58  1  0.49999998  0.54690281  0.21165472  1
  C  C59  1  0.50000000  0.54733857  0.37902626  1
  C  C60  1  0.50000000  0.54777579  0.54602255  1
  C  C61  1  0.49999999  0.54828123  0.71253854  1
  C  C62  1  0.49999999  0.54825977  0.87813801  1
  C  C63  1  0.49999999  0.59553907  0.04442523  1
  C  C64  1  0.49999999  0.59435765  0.21201724  1
  C  C65  1  0.50000000  0.59503096  0.37872216  1
  C  C66  1  0.50000000  0.59568134  0.54584633  1
  C  C67  1  0.49999998  0.59659598  0.71288906  1
  C  C68  1  0.49999999  0.59658066  0.87848462  1
  C  C69  1  0.50000000  0.61773595  0.12896489  1
  C  C70  1  0.49999999  0.61810967  0.29512044  1
  C  C71  1  0.49999999  0.61896248  0.46183792  1
  C  C72  1  0.50000000  0.61985433  0.62913742  1
  C  C73  1  0.49999998  0.62123711  0.79593294  1
  C  C74  1  0.49999999  0.62031264  0.96150986  1
  C  C75  1  0.50000000  0.66528686  0.13015367  1
  C  C76  1  0.50000000  0.66607584  0.29467964  1
  C  C77  1  0.49999998  0.66687484  0.46009513  1
  C  C78  1  0.49999997  0.66790684  0.62863698  1
  C  C79  1  0.50000000  0.67001702  0.79669425  1
  C  C80  1  0.49999999  0.66890277  0.96285013  1
  C  C81  1  0.49999997  0.68838539  0.04817363  1
  C  C82  1  0.50000000  0.68876875  0.21209860  1
  C  C83  1  0.49999999  0.68900937  0.37759823  1
  C  C84  1  0.49999997  0.69112237  0.54481454  1
  C  C85  1  0.49999998  0.69291312  0.71079784  1
  C  C86  1  0.50000003  0.69490490  0.87919004  1
  C  C87  1  0.49999997  0.73779701  0.54420316  1
  C  C88  1  0.49999999  0.74082703  0.70727702  1
  C  C89  1  0.50000009  0.74448415  0.87528476  1
  C  C90  1  0.49999996  0.76331908  0.62179611  1
  C  C91  1  0.50000007  0.76608475  0.78874971  1
  C  C92  1  0.50000017  0.77488426  0.94943977  1
  C  C93  1  0.50000007  0.81246799  0.61498672  1
  C  C94  1  0.50000002  0.81459916  0.78128591  1
  C  C95  1  0.50000015  0.82150011  0.94203076  1
  H  H96  1  0.50000000  0.87322084  0.53857970  1
  H  H97  1  0.50000018  0.87259026  0.69603418  1
  H  H98  1  0.49999992  0.87831736  0.85137940  1
  H  H99  1  0.50000000  0.12677942  0.53857969  1
  H  H100  1  0.50000018  0.12740991  0.69603423  1
  H  H101  1  0.49999992  0.12168276  0.85137945  1
  H  H102  1  0.49999930  0.82170796  0.46800009  1
  H  H103  1  0.49999930  0.17829194  0.46800059  1
  H  H104  1  0.50000002  0.24465333  0.48002911  1
  H  H105  1  0.49999991  0.27613392  0.05716398  1
  H  H106  1  0.49999999  0.27451347  0.21125319  1
  H  H107  1  0.50000000  0.27449165  0.37408109  1
  H  H108  1  0.49999991  0.72386613  0.05716401  1
  H  H109  1  0.49999999  0.72548660  0.21125320  1
  H  H110  1  0.50000000  0.72550843  0.37408107  1
  H  H111  1  0.50000002  0.75534673  0.48002890  1
  H  H112  1  0.50000035  0.15875282  0.00422305  1
  H  H113  1  0.50000016  0.23519077  0.01892624  1
  H  H114  1  0.50000016  0.76480925  0.01892634  1
  H  H115  1  0.50000035  0.84124725  0.00422324  1
