# generated using pymatgen
data_H13C33
_symmetry_space_group_name_H-M   'P 1'
_cell_length_a   10.00000000
_cell_length_b   29.89204000
_cell_length_c   14.94044066
_cell_angle_alpha   90.00000000
_cell_angle_beta   90.00000000
_cell_angle_gamma   90.00000000
_symmetry_Int_Tables_number   1
_chemical_formula_structural   H13C33
_chemical_formula_sum   'H26 C66'
_cell_volume   4466.00249901
_cell_formula_units_Z   2
loop_
 _symmetry_equiv_pos_site_id
 _symmetry_equiv_pos_as_xyz
  1  'x, y, z'
loop_
 _atom_site_type_symbol
 _atom_site_label
 _atom_site_symmetry_multiplicity
 _atom_site_fract_x
 _atom_site_fract_y
 _atom_site_fract_z
 _atom_site_occupancy
  C  C0  1  0.49999982  0.19937274  0.53157224  1
  C  C1  1  0.50000005  0.19895641  0.69315159  1
  C  C2  1  0.50000017  0.19478888  0.85778823  1
  C  C3  1  0.49999994  0.22312519  0.61122636  1
  C  C4  1  0.50000010  0.21996413  0.77707552  1
  C  C5  1  0.50000017  0.21630949  0.94012670  1
  C  C6  1  0.49999992  0.27237263  0.61628897  1
  C  C7  1  0.50000006  0.26815780  0.78160491  1
  C  C8  1  0.50000015  0.26310860  0.94431520  1
  C  C9  1  0.49999982  0.29912480  0.53880174  1
  C  C10  1  0.49999999  0.29424406  0.70105235  1
  C  C11  1  0.50000010  0.28953550  0.86601379  1
  C  C12  1  0.49999983  0.34535553  0.54381137  1
  C  C13  1  0.49999997  0.34238765  0.70616930  1
  C  C14  1  0.50000007  0.33809840  0.86938830  1
  C  C15  1  0.49999992  0.36805943  0.62673513  1
  C  C16  1  0.50000000  0.36499374  0.79138953  1
  C  C17  1  0.50000014  0.36059737  0.95114362  1
  C  C18  1  0.49999995  0.41670453  0.63291228  1
  C  C19  1  0.50000001  0.41359134  0.79769246  1
  C  C20  1  0.50000018  0.40646170  0.95674880  1
  C  C21  1  0.49999998  0.44195020  0.55494787  1
  C  C22  1  0.49999999  0.43943340  0.71725215  1
  C  C23  1  0.50000007  0.43637910  0.88252987  1
  C  C24  1  0.49999993  0.49169529  0.05580661  1
  C  C25  1  0.49999997  0.48916365  0.22097711  1
  C  C26  1  0.50000000  0.48928585  0.38638735  1
  C  C27  1  0.50000001  0.48844822  0.55434951  1
  C  C28  1  0.50000002  0.48756840  0.72040831  1
  C  C29  1  0.50000004  0.48603950  0.88695320  1
  C  C30  1  0.49999998  0.51288514  0.13973646  1
  C  C31  1  0.49999999  0.51196473  0.30301534  1
  C  C32  1  0.50000000  0.51164534  0.46803361  1
  C  C33  1  0.50000001  0.51174719  0.63785326  1
  C  C34  1  0.50000003  0.51133300  0.80576711  1
  C  C35  1  0.50000001  0.51176513  0.97115727  1
  C  C36  1  0.49999999  0.56058913  0.13972249  1
  C  C37  1  0.49999999  0.56052831  0.30318178  1
  C  C38  1  0.50000000  0.55973312  0.46816097  1
  C  C39  1  0.50000000  0.55988814  0.63784087  1
  C  C40  1  0.50000002  0.56113517  0.80567051  1
  C  C41  1  0.50000002  0.56112462  0.97097630  1
  C  C42  1  0.49999997  0.58155857  0.05536427  1
  C  C43  1  0.49999998  0.58387124  0.22154195  1
  C  C44  1  0.49999999  0.58257636  0.38704656  1
  C  C45  1  0.50000000  0.58290604  0.55424914  1
  C  C46  1  0.50000000  0.58448205  0.72003870  1
  C  C47  1  0.50000003  0.58672099  0.88656736  1
  C  C48  1  0.49999998  0.62930538  0.55406022  1
  C  C49  1  0.49999997  0.63260589  0.71620318  1
  C  C50  1  0.50000005  0.63655280  0.88161102  1
  C  C51  1  0.49999995  0.65479974  0.63131086  1
  C  C52  1  0.50000000  0.65887467  0.79623690  1
  C  C53  1  0.50000011  0.66717153  0.95494921  1
  C  C54  1  0.49999993  0.70333729  0.62320926  1
  C  C55  1  0.50000002  0.70750056  0.78854841  1
  C  C56  1  0.50000011  0.71318953  0.94805857  1
  C  C57  1  0.49999984  0.72541409  0.53956915  1
  C  C58  1  0.49999998  0.72900700  0.70239745  1
  C  C59  1  0.50000008  0.73519643  0.86576249  1
  C  C60  1  0.49999982  0.77213083  0.53347411  1
  C  C61  1  0.50000000  0.77727546  0.69608001  1
  C  C62  1  0.50000010  0.78439346  0.86044929  1
  C  C63  1  0.49999993  0.79792072  0.61054121  1
  C  C64  1  0.50000006  0.80351169  0.77374665  1
  C  C65  1  0.50000012  0.81215808  0.93480045  1
  H  H66  1  0.49999981  0.16271489  0.53379311  1
  H  H67  1  0.50000007  0.16224786  0.69029380  1
  H  H68  1  0.50000019  0.15816169  0.85373740  1
  H  H69  1  0.49999998  0.83454230  0.60690752  1
  H  H70  1  0.50000005  0.84008197  0.76693076  1
  H  H71  1  0.50000012  0.84854809  0.92567215  1
  H  H72  1  0.49999964  0.21500814  0.46546180  1
  H  H73  1  0.49999973  0.28344812  0.47264861  1
  H  H74  1  0.49999973  0.36414195  0.48109056  1
  H  H75  1  0.49999998  0.42456898  0.49108295  1
  H  H76  1  0.49999972  0.45620283  0.06353842  1
  H  H77  1  0.49999999  0.45244523  0.22033403  1
  H  H78  1  0.50000001  0.45272331  0.38324830  1
  H  H79  1  0.49999983  0.61715404  0.06145252  1
  H  H80  1  0.49999999  0.62059697  0.22185408  1
  H  H81  1  0.49999999  0.61913420  0.38506141  1
  H  H82  1  0.49999999  0.64645791  0.49005640  1
  H  H83  1  0.49999975  0.70633911  0.47722004  1
  H  H84  1  0.49999973  0.78815986  0.46749404  1
  H  H85  1  0.50000016  0.19688710  0.00243952  1
  H  H86  1  0.50000013  0.27897574  0.01014554  1
  H  H87  1  0.50000019  0.34197593  0.01402751  1
  H  H88  1  0.50000040  0.41665140  0.02549227  1
  H  H89  1  0.50000021  0.65754135  0.02417930  1
  H  H90  1  0.50000012  0.73231070  0.01052961  1
  H  H91  1  0.50000010  0.80000444  0.00375557  1
