# generated using pymatgen
data_H11C39
_symmetry_space_group_name_H-M   'P 1'
_cell_length_a   10.00000000
_cell_length_b   29.89204000
_cell_length_c   14.83280037
_cell_angle_alpha   90.00000000
_cell_angle_beta   90.00000000
_cell_angle_gamma   90.00000000
_symmetry_Int_Tables_number   1
_chemical_formula_structural   H11C39
_chemical_formula_sum   'H22 C78'
_cell_volume   4433.82661997
_cell_formula_units_Z   2
loop_
 _symmetry_equiv_pos_site_id
 _symmetry_equiv_pos_as_xyz
  1  'x, y, z'
loop_
 _atom_site_type_symbol
 _atom_site_label
 _atom_site_symmetry_multiplicity
 _atom_site_fract_x
 _atom_site_fract_y
 _atom_site_fract_z
 _atom_site_occupancy
  C  C0  1  0.50000036  0.19973552  0.05230280  1
  C  C1  1  0.49999996  0.19889979  0.21976509  1
  C  C2  1  0.49999969  0.19895116  0.38760821  1
  C  C3  1  0.49999972  0.20001532  0.55478485  1
  C  C4  1  0.49999997  0.20078723  0.72068127  1
  C  C5  1  0.50000045  0.20057111  0.88617299  1
  C  C6  1  0.50000023  0.22193411  0.13622059  1
  C  C7  1  0.49999987  0.22135094  0.30371639  1
  C  C8  1  0.49999975  0.22215024  0.47083766  1
  C  C9  1  0.49999986  0.22342104  0.63748189  1
  C  C10  1  0.50000020  0.22377125  0.80350169  1
  C  C11  1  0.50000050  0.22308430  0.96947836  1
  C  C12  1  0.50000051  0.27037238  0.13605265  1
  C  C13  1  0.50000023  0.26969716  0.30369138  1
  C  C14  1  0.49999990  0.27056985  0.47070941  1
  C  C15  1  0.49999990  0.27187473  0.63747261  1
  C  C16  1  0.50000029  0.27224144  0.80352104  1
  C  C17  1  0.50000066  0.27153201  0.96934057  1
  C  C18  1  0.50000072  0.29459755  0.05279330  1
  C  C19  1  0.50000074  0.29313770  0.22016964  1
  C  C20  1  0.50000018  0.29354137  0.38689759  1
  C  C21  1  0.49999987  0.29488874  0.55369008  1
  C  C22  1  0.50000000  0.29597335  0.72050665  1
  C  C23  1  0.50000077  0.29590180  0.88662395  1
  C  C24  1  0.50000097  0.34266727  0.05266782  1
  C  C25  1  0.50000112  0.34084987  0.22028896  1
  C  C26  1  0.50000032  0.34148892  0.38668805  1
  C  C27  1  0.49999986  0.34289139  0.55353749  1
  C  C28  1  0.49999976  0.34422808  0.72069373  1
  C  C29  1  0.50000095  0.34425873  0.88660093  1
  C  C30  1  0.50000094  0.36450335  0.13740838  1
  C  C31  1  0.50000057  0.36456467  0.30315816  1
  C  C32  1  0.50000005  0.36576675  0.46938460  1
  C  C33  1  0.49999970  0.36716496  0.63678630  1
  C  C34  1  0.49999989  0.36871360  0.80382309  1
  C  C35  1  0.50000113  0.36774965  0.96983549  1
  C  C36  1  0.49999712  0.41209850  0.13839313  1
  C  C37  1  0.50000006  0.41258545  0.30265759  1
  C  C38  1  0.50000003  0.41371540  0.46760433  1
  C  C39  1  0.49999952  0.41516514  0.63635928  1
  C  C40  1  0.49999978  0.41742263  0.80420261  1
  C  C41  1  0.49999812  0.41652390  0.97092388  1
  C  C42  1  0.49999106  0.43557495  0.05664245  1
  C  C43  1  0.49999775  0.43539109  0.22042658  1
  C  C44  1  0.50000025  0.43572932  0.38533731  1
  C  C45  1  0.49999948  0.43807928  0.55230614  1
  C  C46  1  0.49999941  0.44029101  0.71842243  1
  C  C47  1  0.50000021  0.44244334  0.88633944  1
  C  C48  1  0.49999889  0.48457284  0.55136576  1
  C  C49  1  0.49999836  0.48815693  0.71448633  1
  C  C50  1  0.50000297  0.49176853  0.88120290  1
  C  C51  1  0.49999807  0.51031865  0.62917326  1
  C  C52  1  0.49999916  0.51415914  0.79525858  1
  C  C53  1  0.50001103  0.52173005  0.95588945  1
  C  C54  1  0.49999760  0.55876871  0.62219430  1
  C  C55  1  0.49999889  0.56262719  0.78821700  1
  C  C56  1  0.50000621  0.56760498  0.94948392  1
  C  C57  1  0.49999692  0.58099047  0.53811996  1
  C  C58  1  0.49999787  0.58478386  0.70182667  1
  C  C59  1  0.50000039  0.58985526  0.86642472  1
  C  C60  1  0.49999610  0.62706581  0.53232950  1
  C  C61  1  0.49999738  0.63288886  0.69576133  1
  C  C62  1  0.50000143  0.63835303  0.86148542  1
  C  C63  1  0.49999610  0.65423285  0.60996259  1
  C  C64  1  0.49999914  0.65974492  0.77624614  1
  C  C65  1  0.50000641  0.66531325  0.93965342  1
  C  C66  1  0.49999535  0.70291865  0.60349850  1
  C  C67  1  0.49999967  0.70768349  0.77076097  1
  C  C68  1  0.50000687  0.71154669  0.93445211  1
  C  C69  1  0.49999321  0.72536911  0.51969190  1
  C  C70  1  0.49999736  0.72883239  0.68380315  1
  C  C71  1  0.50000277  0.73394883  0.85101194  1
  C  C72  1  0.49999356  0.77214221  0.51458405  1
  C  C73  1  0.49999765  0.77699800  0.67841814  1
  C  C74  1  0.50000269  0.78310580  0.84538863  1
  C  C75  1  0.49999576  0.79785012  0.59243408  1
  C  C76  1  0.50000011  0.80244343  0.75791539  1
  C  C77  1  0.50000513  0.81097670  0.92008291  1
  H  H78  1  0.50000035  0.16304250  0.05091310  1
  H  H79  1  0.49999990  0.16217485  0.21924692  1
  H  H80  1  0.49999963  0.16224582  0.38855650  1
  H  H81  1  0.49999964  0.16333190  0.55633923  1
  H  H82  1  0.49999990  0.16409826  0.72108516  1
  H  H83  1  0.50000056  0.16388290  0.88531452  1
  H  H84  1  0.49999627  0.83445821  0.58871010  1
  H  H85  1  0.50000025  0.83904700  0.75253053  1
  H  H86  1  0.50000544  0.84730236  0.91012708  1
  H  H87  1  0.49997582  0.47100514  0.06726666  1
  H  H88  1  0.49999729  0.47207473  0.22006606  1
  H  H89  1  0.50000001  0.47222512  0.38139725  1
  H  H90  1  0.49999906  0.50160752  0.48671920  1
  H  H91  1  0.49999657  0.56222395  0.47488628  1
  H  H92  1  0.49999557  0.64236389  0.46541606  1
  H  H93  1  0.49999117  0.70643616  0.45665157  1
  H  H94  1  0.49999220  0.78838155  0.44835393  1
  H  H95  1  0.50002737  0.51092298  0.02487733  1
  H  H96  1  0.50000948  0.58651616  0.01252491  1
  H  H97  1  0.50001063  0.64989562  0.00643029  1
  H  H98  1  0.50001086  0.73072064  -0.00271141  1
  H  H99  1  0.50000663  0.79894754  -0.01033308  1
