# generated using pymatgen
data_H11C39
_symmetry_space_group_name_H-M   'P 1'
_cell_length_a   10.00000000
_cell_length_b   29.89204000
_cell_length_c   14.86876329
_cell_angle_alpha   90.00000000
_cell_angle_beta   90.00000000
_cell_angle_gamma   90.00000000
_symmetry_Int_Tables_number   1
_chemical_formula_structural   H11C39
_chemical_formula_sum   'H22 C78'
_cell_volume   4444.57667134
_cell_formula_units_Z   2
loop_
 _symmetry_equiv_pos_site_id
 _symmetry_equiv_pos_as_xyz
  1  'x, y, z'
loop_
 _atom_site_type_symbol
 _atom_site_label
 _atom_site_symmetry_multiplicity
 _atom_site_fract_x
 _atom_site_fract_y
 _atom_site_fract_z
 _atom_site_occupancy
  C  C0  1  0.50000061  0.18744199  0.55168886  1
  C  C1  1  0.50000005  0.20074463  0.70563258  1
  C  C2  1  0.49999948  0.20108719  0.86860523  1
  C  C3  1  0.50000028  0.22043704  0.61835058  1
  C  C4  1  0.49999981  0.22447347  0.78529452  1
  C  C5  1  0.49999952  0.22409641  0.94806065  1
  C  C6  1  0.50000015  0.27296861  0.11679670  1
  C  C7  1  0.50000010  0.27322958  0.28328965  1
  C  C8  1  0.49999995  0.27396587  0.44840970  1
  C  C9  1  0.50000011  0.27007107  0.61540566  1
  C  C10  1  0.49999993  0.27238440  0.78344857  1
  C  C11  1  0.49999984  0.27169785  0.94949178  1
  C  C12  1  0.49999999  0.29541946  0.03407873  1
  C  C13  1  0.50000011  0.29565337  0.20008470  1
  C  C14  1  0.50000000  0.29657110  0.36563662  1
  C  C15  1  0.49999999  0.29515096  0.53233564  1
  C  C16  1  0.50000003  0.29484313  0.69798659  1
  C  C17  1  0.49999993  0.29599921  0.86641255  1
  C  C18  1  0.49999999  0.34358379  0.03284415  1
  C  C19  1  0.49999990  0.34368980  0.19959140  1
  C  C20  1  0.49999981  0.34442108  0.36633388  1
  C  C21  1  0.49999980  0.34367580  0.53347697  1
  C  C22  1  0.49999993  0.34345218  0.69879300  1
  C  C23  1  0.50000004  0.34412327  0.86590307  1
  C  C24  1  0.49999991  0.36703862  0.11621426  1
  C  C25  1  0.49999959  0.36720927  0.28270294  1
  C  C26  1  0.49999965  0.36759454  0.45024508  1
  C  C27  1  0.49999966  0.36788105  0.61623407  1
  C  C28  1  0.50000004  0.36767451  0.78214058  1
  C  C29  1  0.50000006  0.36755383  0.94945526  1
  C  C30  1  0.49999987  0.41489885  0.11629714  1
  C  C31  1  0.49999920  0.41464380  0.28262709  1
  C  C32  1  0.49999927  0.41560771  0.45051493  1
  C  C33  1  0.49999939  0.41636356  0.61644903  1
  C  C34  1  0.50000017  0.41612730  0.78209229  1
  C  C35  1  0.50000016  0.41547972  0.94937293  1
  C  C36  1  0.50000007  0.43873671  0.03329494  1
  C  C37  1  0.49999962  0.43816065  0.19965611  1
  C  C38  1  0.49999911  0.43780578  0.36585917  1
  C  C39  1  0.49999908  0.44025502  0.53357110  1
  C  C40  1  0.50000003  0.44079183  0.69918774  1
  C  C41  1  0.50000026  0.43942291  0.86586684  1
  C  C42  1  0.50000011  0.48662391  0.03506864  1
  C  C43  1  0.49999984  0.48611631  0.20025543  1
  C  C44  1  0.50000132  0.48536810  0.36485905  1
  C  C45  1  0.50000076  0.48900131  0.53248763  1
  C  C46  1  0.50000002  0.48961184  0.69885212  1
  C  C47  1  0.50000046  0.48747732  0.86626712  1
  C  C48  1  0.49999980  0.50890524  0.11722964  1
  C  C49  1  0.50000104  0.50877560  0.28281217  1
  C  C50  1  0.50000523  0.50836617  0.44703262  1
  C  C51  1  0.49999945  0.51476903  0.61693803  1
  C  C52  1  0.50000046  0.51262618  0.78437564  1
  C  C53  1  0.50000065  0.51060891  0.95007888  1
  C  C54  1  0.49999753  0.56418258  0.62202940  1
  C  C55  1  0.50000135  0.56054469  0.78826306  1
  C  C56  1  0.50000130  0.55706044  0.95082323  1
  C  C57  1  0.49999161  0.59422877  0.54760872  1
  C  C58  1  0.50000061  0.58661866  0.70772641  1
  C  C59  1  0.50000188  0.58279687  0.87330541  1
  C  C60  1  0.49999545  0.64011721  0.55399274  1
  C  C61  1  0.50000081  0.63514597  0.71484080  1
  C  C62  1  0.50000219  0.63129376  0.88055388  1
  C  C63  1  0.49999999  0.66234278  0.63678349  1
  C  C64  1  0.50000141  0.65724594  0.80116840  1
  C  C65  1  0.50000322  0.65352923  0.96438911  1
  C  C66  1  0.49999963  0.71094845  0.64158437  1
  C  C67  1  0.50000130  0.70532746  0.80739176  1
  C  C68  1  0.50000306  0.69969230  0.97035678  1
  C  C69  1  0.49999736  0.73804011  0.56376371  1
  C  C70  1  0.50000032  0.73184302  0.72706166  1
  C  C71  1  0.50000206  0.72673308  0.89306009  1
  C  C72  1  0.49999645  0.78480534  0.56975453  1
  C  C73  1  0.49999979  0.77995539  0.73335775  1
  C  C74  1  0.50000193  0.77588038  0.89993952  1
  C  C75  1  0.49999806  0.80571223  0.65309334  1
  C  C76  1  0.50000056  0.80048306  0.81824166  1
  C  C77  1  0.50000335  0.79857536  0.98130837  1
  H  H78  1  0.50000048  0.15269429  0.57539203  1
  H  H79  1  0.50000016  0.16412331  0.70935931  1
  H  H80  1  0.49999918  0.16443715  0.86734250  1
  H  H81  1  0.49999808  0.84229224  0.65833859  1
  H  H82  1  0.50000022  0.83714330  0.82175525  1
  H  H83  1  0.50000322  0.83524881  0.98173492  1
  H  H84  1  0.50000105  0.19035057  0.47898837  1
  H  H85  1  0.50000032  0.23640718  0.11921327  1
  H  H86  1  0.50000012  0.23653122  0.28433639  1
  H  H87  1  0.49999967  0.23801629  0.44408587  1
  H  H88  1  0.49999979  0.54540964  0.12054468  1
  H  H89  1  0.50000116  0.54547783  0.28330713  1
  H  H90  1  0.50001562  0.54382159  0.43721700  1
  H  H91  1  0.49997948  0.58366572  0.47863736  1
  H  H92  1  0.49999276  0.65907928  0.49115985  1
  H  H93  1  0.49999601  0.72277140  0.49701029  1
  H  H94  1  0.49999489  0.80489672  0.50806038  1
  H  H95  1  0.49999931  0.20527089  0.01098146  1
  H  H96  1  0.50000122  0.57413583  0.01524637  1
  H  H97  1  0.50000430  0.63463019  0.02726631  1
  H  H98  1  0.50000361  0.71517361  0.03701076  1
  H  H99  1  0.50000450  0.78175674  0.04662346  1
