# generated using pymatgen
data_H7C39
_symmetry_space_group_name_H-M   'P 1'
_cell_length_a   10.00000000
_cell_length_b   25.62946000
_cell_length_c   14.81888535
_cell_angle_alpha   90.00000000
_cell_angle_beta   90.00000000
_cell_angle_gamma   90.00000000
_symmetry_Int_Tables_number   1
_chemical_formula_structural   H7C39
_chemical_formula_sum   'H14 C78'
_cell_volume   3798.00029252
_cell_formula_units_Z   2
loop_
 _symmetry_equiv_pos_site_id
 _symmetry_equiv_pos_as_xyz
  1  'x, y, z'
loop_
 _atom_site_type_symbol
 _atom_site_label
 _atom_site_symmetry_multiplicity
 _atom_site_fract_x
 _atom_site_fract_y
 _atom_site_fract_z
 _atom_site_occupancy
  C  C0  1  0.49999980  0.23509483  0.04171880  1
  C  C1  1  0.49999921  0.23502843  0.20856968  1
  C  C2  1  0.49999933  0.23520003  0.37549747  1
  C  C3  1  0.49999982  0.23539266  0.54220930  1
  C  C4  1  0.49999993  0.23545522  0.70866357  1
  C  C5  1  0.50000034  0.23530720  0.87510079  1
  C  C6  1  0.49999926  0.26161723  0.12517921  1
  C  C7  1  0.49999899  0.26163314  0.29198977  1
  C  C8  1  0.49999956  0.26189065  0.45882448  1
  C  C9  1  0.49999992  0.26209927  0.62546424  1
  C  C10  1  0.50000010  0.26203715  0.79195389  1
  C  C11  1  0.50000006  0.26181900  0.95850157  1
  C  C12  1  0.49999934  0.31809874  0.12530764  1
  C  C13  1  0.49999925  0.31806587  0.29213572  1
  C  C14  1  0.49999978  0.31829895  0.45896345  1
  C  C15  1  0.50000013  0.31854121  0.62560920  1
  C  C16  1  0.50000001  0.31850797  0.79207078  1
  C  C17  1  0.49999983  0.31830241  0.95861263  1
  C  C18  1  0.49999966  0.34582807  0.04203456  1
  C  C19  1  0.49999954  0.34564054  0.20879534  1
  C  C20  1  0.49999976  0.34570903  0.37556882  1
  C  C21  1  0.50000027  0.34605250  0.54230942  1
  C  C22  1  0.50000025  0.34624410  0.70889879  1
  C  C23  1  0.49999993  0.34608771  0.87542246  1
  C  C24  1  0.49999995  0.40177864  0.04217340  1
  C  C25  1  0.50000006  0.40155242  0.20902975  1
  C  C26  1  0.50000026  0.40161434  0.37591390  1
  C  C27  1  0.50000061  0.40200738  0.54268712  1
  C  C28  1  0.50000064  0.40224897  0.70911289  1
  C  C29  1  0.50000006  0.40209753  0.87552876  1
  C  C30  1  0.50000012  0.42928464  0.12565654  1
  C  C31  1  0.50000025  0.42913146  0.29259825  1
  C  C32  1  0.50000045  0.42945409  0.45929757  1
  C  C33  1  0.50000072  0.43001287  0.62598067  1
  C  C34  1  0.50000045  0.43006668  0.79240143  1
  C  C35  1  0.50000011  0.42971222  0.95889358  1
  C  C36  1  0.50000015  0.48506779  0.12571921  1
  C  C37  1  0.50000005  0.48485821  0.29284252  1
  C  C38  1  0.50000014  0.48526724  0.45955250  1
  C  C39  1  0.50000030  0.48599161  0.62634185  1
  C  C40  1  0.50000034  0.48605862  0.79264733  1
  C  C41  1  0.50000021  0.48561357  0.95895034  1
  C  C42  1  0.50000021  0.51304983  0.04243322  1
  C  C43  1  0.50000017  0.51231556  0.20940661  1
  C  C44  1  0.50000002  0.51266496  0.37619357  1
  C  C45  1  0.49999991  0.51338177  0.54279378  1
  C  C46  1  0.50000005  0.51410550  0.70964686  1
  C  C47  1  0.50000018  0.51383328  0.87594614  1
  C  C48  1  0.50000026  0.56891979  0.04264459  1
  C  C49  1  0.50000053  0.56787605  0.20967315  1
  C  C50  1  0.50000015  0.56851078  0.37628453  1
  C  C51  1  0.49999953  0.56926406  0.54276089  1
  C  C52  1  0.49999946  0.57023176  0.70984409  1
  C  C53  1  0.49999987  0.56994923  0.87622703  1
  C  C54  1  0.50000058  0.59545254  0.12668664  1
  C  C55  1  0.50000065  0.59553104  0.29274120  1
  C  C56  1  0.49999988  0.59671431  0.45928042  1
  C  C57  1  0.49999933  0.59732099  0.62596974  1
  C  C58  1  0.49999944  0.59832035  0.79350602  1
  C  C59  1  0.49999994  0.59746497  0.95951130  1
  C  C60  1  0.50000050  0.65127818  0.12741884  1
  C  C61  1  0.50000076  0.65156049  0.29234633  1
  C  C62  1  0.50000011  0.65294630  0.45811633  1
  C  C63  1  0.49999959  0.65337940  0.62577487  1
  C  C64  1  0.49999943  0.65485360  0.79465341  1
  C  C65  1  0.49999983  0.65390973  0.96066208  1
  C  C66  1  0.50000008  0.67819742  0.04505657  1
  C  C67  1  0.50000056  0.67825722  0.20980327  1
  C  C68  1  0.50000047  0.67861089  0.37503974  1
  C  C69  1  0.49999988  0.68137988  0.54238861  1
  C  C70  1  0.49999969  0.68102762  0.70899580  1
  C  C71  1  0.49999960  0.68348986  0.87764353  1
  C  C72  1  0.49999997  0.73695181  0.54364636  1
  C  C73  1  0.49999999  0.73688806  0.70738732  1
  C  C74  1  0.49999974  0.74136040  0.87511205  1
  C  C75  1  0.49999999  0.76390089  0.62341827  1
  C  C76  1  0.50000000  0.76445952  0.78759714  1
  C  C77  1  0.49999989  0.77965021  0.94247514  1
  H  H78  1  0.49999995  0.19227723  0.04136573  1
  H  H79  1  0.49999973  0.19222041  0.20855197  1
  H  H80  1  0.49999967  0.19240825  0.37574222  1
  H  H81  1  0.49999992  0.19259128  0.54235475  1
  H  H82  1  0.49999997  0.19265168  0.70846054  1
  H  H83  1  0.50000061  0.19249741  0.87460645  1
  H  H84  1  0.50000007  0.80666942  0.62419983  1
  H  H85  1  0.50000017  0.80718225  0.78433128  1
  H  H86  1  0.49999993  0.82032204  0.91930923  1
  H  H87  1  0.49999996  0.72007425  0.04991173  1
  H  H88  1  0.50000036  0.72106474  0.20994497  1
  H  H89  1  0.50000044  0.72120355  0.37165140  1
  H  H90  1  0.49999997  0.75886004  0.48034879  1
  H  H91  1  0.50000011  0.77583175  0.01540649  1
