# generated using pymatgen
data_HC3
_symmetry_space_group_name_H-M   'P 1'
_cell_length_a   10.00000000
_cell_length_b   29.89204000
_cell_length_c   14.84306641
_cell_angle_alpha   90.00000000
_cell_angle_beta   90.00000000
_cell_angle_gamma   90.00000000
_symmetry_Int_Tables_number   1
_chemical_formula_structural   HC3
_chemical_formula_sum   'H24 C72'
_cell_volume   4436.89534782
_cell_formula_units_Z   24
loop_
 _symmetry_equiv_pos_site_id
 _symmetry_equiv_pos_as_xyz
  1  'x, y, z'
loop_
 _atom_site_type_symbol
 _atom_site_label
 _atom_site_symmetry_multiplicity
 _atom_site_fract_x
 _atom_site_fract_y
 _atom_site_fract_z
 _atom_site_occupancy
  C  C0  1  0.49999092  0.20174613  0.50862879  1
  C  C1  1  0.49999708  0.20007675  0.67201671  1
  C  C2  1  0.50000624  0.19472829  0.83745483  1
  C  C3  1  0.49999411  0.22452796  0.58995042  1
  C  C4  1  0.50000176  0.22057707  0.75717167  1
  C  C5  1  0.50001098  0.21556393  0.92104288  1
  C  C6  1  0.49999454  0.27364877  0.59647398  1
  C  C7  1  0.50000217  0.26873808  0.76360475  1
  C  C8  1  0.50001131  0.26233256  0.92734826  1
  C  C9  1  0.49999098  0.30075631  0.51898786  1
  C  C10  1  0.49999773  0.29495603  0.68236917  1
  C  C11  1  0.50000668  0.28958417  0.84969179  1
  C  C12  1  0.49999086  0.34697638  0.52462440  1
  C  C13  1  0.49999581  0.34286840  0.68819667  1
  C  C14  1  0.50000359  0.33830319  0.85518600  1
  C  C15  1  0.49999288  0.36927028  0.60851066  1
  C  C16  1  0.49999597  0.36438648  0.77493455  1
  C  C17  1  0.50000594  0.36082041  0.93873002  1
  C  C18  1  0.49999067  0.41788903  0.61466570  1
  C  C19  1  0.49998803  0.41230818  0.78045563  1
  C  C20  1  0.49999543  0.40696133  0.94388827  1
  C  C21  1  0.49999116  0.44506778  0.53698978  1
  C  C22  1  0.49998664  0.43928089  0.70028510  1
  C  C23  1  0.49998417  0.43380158  0.86561550  1
  C  C24  1  0.49998896  0.49113277  0.54285045  1
  C  C25  1  0.49998277  0.48733619  0.70640399  1
  C  C26  1  0.49998608  0.48229524  0.87074637  1
  C  C27  1  0.49998513  0.51334349  0.62681189  1
  C  C28  1  0.49998272  0.50949778  0.79268033  1
  C  C29  1  0.50006390  0.50440784  0.95396005  1
  C  C30  1  0.49998541  0.56180980  0.63376648  1
  C  C31  1  0.49998794  0.55786686  0.79996657  1
  C  C32  1  0.50013068  0.55026830  0.96058612  1
  C  C33  1  0.49999569  0.58764349  0.55609576  1
  C  C34  1  0.49998418  0.58386303  0.71918771  1
  C  C35  1  0.50003132  0.58016969  0.88598661  1
  C  C36  1  0.49987528  0.63648775  0.06237371  1
  C  C37  1  0.49996084  0.63713611  0.22609936  1
  C  C38  1  0.50000210  0.63698482  0.39050614  1
  C  C39  1  0.49999985  0.63418119  0.55723362  1
  C  C40  1  0.49999736  0.63171084  0.72329099  1
  C  C41  1  0.49999862  0.62947388  0.89166767  1
  C  C42  1  0.49995552  0.66021836  0.14394645  1
  C  C43  1  0.49999639  0.66020114  0.30794199  1
  C  C44  1  0.50000367  0.65881504  0.47268060  1
  C  C45  1  0.49999999  0.65688181  0.64125073  1
  C  C46  1  0.49999847  0.65432921  0.80953343  1
  C  C47  1  0.49997209  0.65533124  0.97655775  1
  C  C48  1  0.50001090  0.70796947  0.14272794  1
  C  C49  1  0.50000659  0.70836627  0.30836976  1
  C  C50  1  0.50000343  0.70692953  0.47458222  1
  C  C51  1  0.50000046  0.70497696  0.64192759  1
  C  C52  1  0.50000094  0.70312107  0.80920180  1
  C  C53  1  0.50001586  0.70421906  0.97537030  1
  C  C54  1  0.50001423  0.72945904  0.05772230  1
  C  C55  1  0.50001501  0.73193107  0.22536183  1
  C  C56  1  0.50000562  0.73132452  0.39213676  1
  C  C57  1  0.50000122  0.72943161  0.55908304  1
  C  C58  1  0.50000006  0.72747148  0.72610217  1
  C  C59  1  0.50001432  0.72739153  0.89180944  1
  C  C60  1  0.50001135  0.77801825  0.05751760  1
  C  C61  1  0.50001264  0.78026688  0.22508712  1
  C  C62  1  0.50000454  0.77980629  0.39255689  1
  C  C63  1  0.50000005  0.77792662  0.55953093  1
  C  C64  1  0.50000131  0.77607332  0.72601851  1
  C  C65  1  0.50001122  0.77603535  0.89163140  1
  C  C66  1  0.50000889  0.80178779  0.14027401  1
  C  C67  1  0.50000585  0.80281031  0.30907395  1
  C  C68  1  0.50000078  0.80167930  0.47684039  1
  C  C69  1  0.49999963  0.79972804  0.64366887  1
  C  C70  1  0.50000356  0.79885227  0.80885205  1
  C  C71  1  0.50000903  0.79988833  0.97366465  1
  H  H72  1  0.49999033  0.16510721  0.50811825  1
  H  H73  1  0.49999652  0.16341747  0.66849477  1
  H  H74  1  0.50000605  0.15813613  0.83228003  1
  H  H75  1  0.50000307  0.83846508  0.13767553  1
  H  H76  1  0.50000005  0.83950017  0.30956896  1
  H  H77  1  0.49999940  0.83839772  0.47855461  1
  H  H78  1  0.49999976  0.83643129  0.64581438  1
  H  H79  1  0.49999852  0.83554748  0.80915432  1
  H  H80  1  0.50000375  0.83657355  0.97162462  1
  H  H81  1  0.49998916  0.21850195  0.44319136  1
  H  H82  1  0.49998768  0.28521495  0.45224823  1
  H  H83  1  0.49998795  0.36611461  0.46187140  1
  H  H84  1  0.49999325  0.42987854  0.47003266  1
  H  H85  1  0.49998963  0.51007077  0.47986671  1
  H  H86  1  0.50000072  0.57070827  0.49137334  1
  H  H87  1  0.49966789  0.60106863  0.07346879  1
  H  H88  1  0.49995042  0.60042614  0.22640379  1
  H  H89  1  0.49999779  0.60049324  0.38648344  1
  H  H90  1  0.50001469  0.19547847  -0.01716536  1
  H  H91  1  0.50001412  0.27749881  -0.00560296  1
  H  H92  1  0.50001573  0.34185321  0.00165543  1
  H  H93  1  0.49999682  0.42253744  0.01050463  1
  H  H94  1  0.50011122  0.48546098  0.01690050  1
  H  H95  1  0.50033734  0.56127517  0.02942291  1
