# generated using pymatgen
data_HC3
_symmetry_space_group_name_H-M   'P 1'
_cell_length_a   10.00000000
_cell_length_b   29.89204000
_cell_length_c   14.90202989
_cell_angle_alpha   90.00000000
_cell_angle_beta   90.00000000
_cell_angle_gamma   90.00000000
_symmetry_Int_Tables_number   1
_chemical_formula_structural   HC3
_chemical_formula_sum   'H24 C72'
_cell_volume   4454.52073609
_cell_formula_units_Z   24
loop_
 _symmetry_equiv_pos_site_id
 _symmetry_equiv_pos_as_xyz
  1  'x, y, z'
loop_
 _atom_site_type_symbol
 _atom_site_label
 _atom_site_symmetry_multiplicity
 _atom_site_fract_x
 _atom_site_fract_y
 _atom_site_fract_z
 _atom_site_occupancy
  C  C0  1  0.50000029  0.18843831  0.57605767  1
  C  C1  1  0.49999951  0.19669874  0.73776010  1
  C  C2  1  0.49999994  0.20223429  0.90185063  1
  C  C3  1  0.50000002  0.21598708  0.65091107  1
  C  C4  1  0.49999966  0.22279977  0.81591708  1
  C  C5  1  0.50000108  0.22806006  0.97914131  1
  C  C6  1  0.49999998  0.26514759  0.64583462  1
  C  C7  1  0.49999994  0.27106948  0.80979114  1
  C  C8  1  0.50000168  0.27474550  0.97309807  1
  C  C9  1  0.49999856  0.28721187  0.56331688  1
  C  C10  1  0.49999994  0.29264118  0.72346358  1
  C  C11  1  0.50000072  0.29672990  0.88925428  1
  C  C12  1  0.49999719  0.33319612  0.55645422  1
  C  C13  1  0.50000001  0.34120061  0.71603463  1
  C  C14  1  0.50000051  0.34524197  0.88135967  1
  C  C15  1  0.49999918  0.36343762  0.63046468  1
  C  C16  1  0.50000028  0.36737202  0.79642539  1
  C  C17  1  0.50000024  0.37093134  0.95850742  1
  C  C18  1  0.50000008  0.41822708  0.12493533  1
  C  C19  1  0.50000053  0.41754971  0.29153348  1
  C  C20  1  0.50000245  0.41879586  0.45603873  1
  C  C21  1  0.49999990  0.41299975  0.62576461  1
  C  C22  1  0.50000008  0.41542146  0.79299878  1
  C  C23  1  0.50000026  0.41736565  0.95801028  1
  C  C24  1  0.50000022  0.44092544  0.04311499  1
  C  C25  1  0.50000017  0.44013369  0.20896676  1
  C  C26  1  0.50000066  0.44122691  0.37332559  1
  C  C27  1  0.50000042  0.43845890  0.54123188  1
  C  C28  1  0.49999995  0.43831094  0.70765157  1
  C  C29  1  0.50000031  0.44067918  0.87471340  1
  C  C30  1  0.50000038  0.48888428  0.04146852  1
  C  C31  1  0.50000019  0.48804321  0.20885866  1
  C  C32  1  0.49999969  0.48883995  0.37414140  1
  C  C33  1  0.49999951  0.48711669  0.54226652  1
  C  C34  1  0.49999992  0.48733286  0.70850688  1
  C  C35  1  0.50000042  0.48894068  0.87455069  1
  C  C36  1  0.50000033  0.51116134  0.12588467  1
  C  C37  1  0.49999983  0.51195921  0.29119208  1
  C  C38  1  0.49999963  0.51112262  0.45856789  1
  C  C39  1  0.49999959  0.51105661  0.62552330  1
  C  C40  1  0.50000008  0.51257405  0.79158969  1
  C  C41  1  0.50000050  0.51289733  0.95778307  1
  C  C42  1  0.49999933  0.55876795  0.12664846  1
  C  C43  1  0.49999984  0.55987168  0.29104421  1
  C  C44  1  0.49999979  0.55908542  0.45688209  1
  C  C45  1  0.49999969  0.55933602  0.62531450  1
  C  C46  1  0.50000005  0.56164327  0.79232843  1
  C  C47  1  0.49999957  0.56155136  0.95871215  1
  C  C48  1  0.49999751  0.58120380  0.04393539  1
  C  C49  1  0.49999946  0.58244475  0.20846150  1
  C  C50  1  0.49999993  0.58179154  0.37507794  1
  C  C51  1  0.49999975  0.58264141  0.54199277  1
  C  C52  1  0.49999992  0.58462921  0.70702881  1
  C  C53  1  0.50000010  0.58698610  0.87409325  1
  C  C54  1  0.49999976  0.62908354  0.54149370  1
  C  C55  1  0.49999972  0.63265065  0.70358539  1
  C  C56  1  0.50000084  0.63655970  0.86949807  1
  C  C57  1  0.49999949  0.65475840  0.61862256  1
  C  C58  1  0.49999998  0.65881046  0.78396176  1
  C  C59  1  0.50000287  0.66680384  0.94353867  1
  C  C60  1  0.49999927  0.70326890  0.61075280  1
  C  C61  1  0.50000005  0.70735406  0.77652972  1
  C  C62  1  0.50000146  0.71277530  0.93668156  1
  C  C63  1  0.49999831  0.72524540  0.52687511  1
  C  C64  1  0.50000005  0.72892421  0.69021544  1
  C  C65  1  0.50000001  0.73485097  0.85417201  1
  C  C66  1  0.49999890  0.77193738  0.52085612  1
  C  C67  1  0.50000034  0.77719650  0.68408282  1
  C  C68  1  0.49999997  0.78400834  0.84908521  1
  C  C69  1  0.50000005  0.79776215  0.59813522  1
  C  C70  1  0.50000049  0.80330017  0.76224680  1
  C  C71  1  0.49999970  0.81155725  0.92395702  1
  H  H72  1  0.49999975  0.15203770  0.58496126  1
  H  H73  1  0.49999926  0.16011093  0.74392622  1
  H  H74  1  0.49999970  0.16564227  0.90611517  1
  H  H75  1  0.50000028  0.83436505  0.59384575  1
  H  H76  1  0.50000073  0.83989598  0.75608167  1
  H  H77  1  0.50000025  0.84795455  0.91503867  1
  H  H78  1  0.50000105  0.20088556  0.50710146  1
  H  H79  1  0.49999773  0.26806736  0.50075197  1
  H  H80  1  0.49999277  0.34335642  0.48740076  1
  H  H81  1  0.50000001  0.38170607  0.12724995  1
  H  H82  1  0.50000044  0.38084299  0.29253271  1
  H  H83  1  0.50000728  0.38330342  0.44740105  1
  H  H84  1  0.49999259  0.61669683  0.05259207  1
  H  H85  1  0.49999953  0.61915216  0.20742752  1
  H  H86  1  0.49999999  0.61831339  0.37275428  1
  H  H87  1  0.50000000  0.64612968  0.47721896  1
  H  H88  1  0.49999716  0.70623636  0.46425905  1
  H  H89  1  0.49999858  0.78774601  0.45449554  1
  H  H90  1  0.50000141  0.21224368  0.04547452  1
  H  H91  1  0.50000283  0.29373766  0.03574701  1
  H  H92  1  0.50000000  0.35388152  0.02276477  1
  H  H93  1  0.50000737  0.65667116  0.01262915  1
  H  H94  1  0.50000229  0.73194010  -0.00075662  1
  H  H95  1  0.49999895  0.79911659  -0.00708353  1
