# generated using pymatgen
data_H5C18
_symmetry_space_group_name_H-M   'P 1'
_cell_length_a   10.00000000
_cell_length_b   25.62946000
_cell_length_c   14.86876152
_cell_angle_alpha   90.00000000
_cell_angle_beta   90.00000000
_cell_angle_gamma   90.00000000
_symmetry_Int_Tables_number   1
_chemical_formula_structural   H5C18
_chemical_formula_sum   'H20 C72'
_cell_volume   3810.78328528
_cell_formula_units_Z   4
loop_
 _symmetry_equiv_pos_site_id
 _symmetry_equiv_pos_as_xyz
  1  'x, y, z'
loop_
 _atom_site_type_symbol
 _atom_site_label
 _atom_site_symmetry_multiplicity
 _atom_site_fract_x
 _atom_site_fract_y
 _atom_site_fract_z
 _atom_site_occupancy
  C  C0  1  0.49999815  0.80799336  0.53582680  1
  C  C1  1  0.49999730  0.80770637  0.69798452  1
  C  C2  1  0.49999683  0.81499202  0.85921450  1
  C  C3  1  0.50000115  0.19200663  0.53582677  1
  C  C4  1  0.50000295  0.19229362  0.69798453  1
  C  C5  1  0.50000331  0.18500796  0.85921450  1
  C  C6  1  0.50000181  0.21971930  0.61584976  1
  C  C7  1  0.50000308  0.21699756  0.78187479  1
  C  C8  1  0.50000201  0.20865749  0.94228797  1
  C  C9  1  0.50000124  0.27695963  0.62314302  1
  C  C10  1  0.50000221  0.27358594  0.78964751  1
  C  C11  1  0.50000104  0.26303276  0.94991984  1
  C  C12  1  0.50000067  0.30667442  0.54572315  1
  C  C13  1  0.50000142  0.30316303  0.70850409  1
  C  C14  1  0.50000162  0.29869486  0.87612923  1
  C  C15  1  0.50000092  0.36379174  0.04880533  1
  C  C16  1  0.50000053  0.36289968  0.21294296  1
  C  C17  1  0.50000049  0.36272125  0.37902379  1
  C  C18  1  0.50000029  0.36105402  0.54624745  1
  C  C19  1  0.50000081  0.35906859  0.71198885  1
  C  C20  1  0.50000118  0.35660749  0.88008634  1
  C  C21  1  0.50000041  0.39037396  0.13102583  1
  C  C22  1  0.50000051  0.38910726  0.29580964  1
  C  C23  1  0.50000028  0.38882359  0.46125536  1
  C  C24  1  0.50000036  0.38823388  0.62995963  1
  C  C25  1  0.50000090  0.38578114  0.79787264  1
  C  C26  1  0.50000083  0.38677432  0.96373607  1
  C  C27  1  0.50000013  0.44583949  0.12995065  1
  C  C28  1  0.50000024  0.44500702  0.29650163  1
  C  C29  1  0.50000015  0.44466356  0.46313352  1
  C  C30  1  0.50000021  0.44435248  0.63055167  1
  C  C31  1  0.50000048  0.44288828  0.79727637  1
  C  C32  1  0.50000036  0.44356593  0.96254478  1
  C  C33  1  0.50000010  0.47203494  0.04547259  1
  C  C34  1  0.50000007  0.47241529  0.21351217  1
  C  C35  1  0.50000008  0.47214904  0.37987502  1
  C  C36  1  0.50000009  0.47205412  0.54701905  1
  C  C37  1  0.50000019  0.47167678  0.71433736  1
  C  C38  1  0.50000023  0.47163172  0.87974402  1
  C  C39  1  0.49999987  0.52796507  0.04547259  1
  C  C40  1  0.49999989  0.52758471  0.21351214  1
  C  C41  1  0.49999987  0.52785096  0.37987498  1
  C  C42  1  0.49999991  0.52794588  0.54701912  1
  C  C43  1  0.49999980  0.52832322  0.71433736  1
  C  C44  1  0.49999978  0.52836829  0.87974401  1
  C  C45  1  0.49999984  0.55416051  0.12995065  1
  C  C46  1  0.49999973  0.55499298  0.29650165  1
  C  C47  1  0.49999983  0.55533643  0.46313354  1
  C  C48  1  0.49999977  0.55564753  0.63055165  1
  C  C49  1  0.49999952  0.55711175  0.79727636  1
  C  C50  1  0.49999965  0.55643408  0.96254476  1
  C  C51  1  0.49999952  0.60962603  0.13102582  1
  C  C52  1  0.49999951  0.61089273  0.29580962  1
  C  C53  1  0.49999973  0.61117642  0.46125535  1
  C  C54  1  0.49999957  0.61176613  0.62995965  1
  C  C55  1  0.49999912  0.61421889  0.79787263  1
  C  C56  1  0.49999915  0.61322569  0.96373605  1
  C  C57  1  0.49999888  0.63620825  0.04880531  1
  C  C58  1  0.49999950  0.63710031  0.21294297  1
  C  C59  1  0.49999958  0.63727872  0.37902384  1
  C  C60  1  0.49999964  0.63894596  0.54624744  1
  C  C61  1  0.49999915  0.64093141  0.71198884  1
  C  C62  1  0.49999888  0.64339254  0.88008634  1
  C  C63  1  0.49999921  0.69332559  0.54572319  1
  C  C64  1  0.49999852  0.69683697  0.70850410  1
  C  C65  1  0.49999859  0.70130515  0.87612917  1
  C  C66  1  0.49999858  0.72304036  0.62314300  1
  C  C67  1  0.49999791  0.72641403  0.78964752  1
  C  C68  1  0.49999952  0.73696724  0.94991984  1
  C  C69  1  0.49999807  0.78028067  0.61584982  1
  C  C70  1  0.49999701  0.78300241  0.78187480  1
  C  C71  1  0.49999862  0.79134253  0.94228788  1
  H  H72  1  0.49999856  0.85075598  0.53826733  1
  H  H73  1  0.49999727  0.85049451  0.69637178  1
  H  H74  1  0.49999619  0.85747558  0.85141112  1
  H  H75  1  0.50000131  0.14924402  0.53826732  1
  H  H76  1  0.50000281  0.14950549  0.69637179  1
  H  H77  1  0.50000375  0.14252444  0.85141112  1
  H  H78  1  0.49999843  0.79021597  0.46899862  1
  H  H79  1  0.49999983  0.20978401  0.46899860  1
  H  H80  1  0.50000068  0.28628284  0.48155858  1
  H  H81  1  0.50000163  0.32240233  0.05749940  1
  H  H82  1  0.50000058  0.32008948  0.21176347  1
  H  H83  1  0.50000058  0.32014624  0.37592899  1
  H  H84  1  0.49999783  0.67759767  0.05749940  1
  H  H85  1  0.49999954  0.67991053  0.21176350  1
  H  H86  1  0.49999957  0.67985375  0.37592899  1
  H  H87  1  0.49999938  0.71371715  0.48155858  1
  H  H88  1  0.50000147  0.18536761  0.00411818  1
  H  H89  1  0.49999920  0.27477559  0.01930475  1
  H  H90  1  0.50000144  0.72522441  0.01930472  1
  H  H91  1  0.49999959  0.81463243  0.00411811  1
