# generated using pymatgen
data_H13C33
_symmetry_space_group_name_H-M   'P 1'
_cell_length_a   10.00000000
_cell_length_b   29.89204000
_cell_length_c   14.93992055
_cell_angle_alpha   90.00000000
_cell_angle_beta   90.00000000
_cell_angle_gamma   90.00000000
_symmetry_Int_Tables_number   1
_chemical_formula_structural   H13C33
_chemical_formula_sum   'H26 C66'
_cell_volume   4465.84702555
_cell_formula_units_Z   2
loop_
 _symmetry_equiv_pos_site_id
 _symmetry_equiv_pos_as_xyz
  1  'x, y, z'
loop_
 _atom_site_type_symbol
 _atom_site_label
 _atom_site_symmetry_multiplicity
 _atom_site_fract_x
 _atom_site_fract_y
 _atom_site_fract_z
 _atom_site_occupancy
  C  C0  1  0.49999992  0.18805878  0.56532921  1
  C  C1  1  0.49999994  0.19664518  0.72647917  1
  C  C2  1  0.50000005  0.20219326  0.88983232  1
  C  C3  1  0.49999994  0.21575814  0.63977601  1
  C  C4  1  0.49999999  0.22281459  0.80419572  1
  C  C5  1  0.50000016  0.22808923  0.96679539  1
  C  C6  1  0.49999996  0.26493756  0.63444085  1
  C  C7  1  0.50000001  0.27107039  0.79774064  1
  C  C8  1  0.50000017  0.27479806  0.96054283  1
  C  C9  1  0.49999991  0.28691321  0.55211696  1
  C  C10  1  0.49999998  0.29260953  0.71160335  1
  C  C11  1  0.50000008  0.29679883  0.87679939  1
  C  C12  1  0.49999986  0.33288324  0.54479962  1
  C  C13  1  0.50000000  0.34119998  0.70367137  1
  C  C14  1  0.50000003  0.34531320  0.86846606  1
  C  C15  1  0.49999994  0.36339460  0.61818603  1
  C  C16  1  0.50000002  0.36749967  0.78358918  1
  C  C17  1  0.50000002  0.37079501  0.94568424  1
  C  C18  1  0.50000002  0.41752397  0.11280080  1
  C  C19  1  0.50000001  0.41620288  0.27813282  1
  C  C20  1  0.50000006  0.41840997  0.44424594  1
  C  C21  1  0.49999996  0.41320997  0.61313800  1
  C  C22  1  0.50000001  0.41560000  0.77968087  1
  C  C23  1  0.50000001  0.41716637  0.94551528  1
  C  C24  1  0.50000001  0.44030381  0.03164396  1
  C  C25  1  0.50000001  0.43961342  0.19659994  1
  C  C26  1  0.50000001  0.43946492  0.35995704  1
  C  C27  1  0.49999997  0.43876228  0.52868389  1
  C  C28  1  0.49999999  0.43884766  0.69397948  1
  C  C29  1  0.49999999  0.44015552  0.86191721  1
  C  C30  1  0.50000000  0.48838447  0.03173740  1
  C  C31  1  0.50000001  0.48818916  0.19677667  1
  C  C32  1  0.50000003  0.48718783  0.35999739  1
  C  C33  1  0.49999999  0.48809143  0.52858819  1
  C  C34  1  0.49999999  0.48860210  0.69388357  1
  C  C35  1  0.49999998  0.48826552  0.86190882  1
  C  C36  1  0.50000000  0.51077375  0.11332915  1
  C  C37  1  0.50000002  0.51101932  0.27883097  1
  C  C38  1  0.50000014  0.50823645  0.44406701  1
  C  C39  1  0.49999996  0.51385804  0.61274448  1
  C  C40  1  0.50000000  0.51235544  0.77922804  1
  C  C41  1  0.50000000  0.51155588  0.94542433  1
  C  C42  1  0.49999991  0.56352531  0.61708199  1
  C  C43  1  0.50000003  0.56046251  0.78236790  1
  C  C44  1  0.50000002  0.55802007  0.94479059  1
  C  C45  1  0.49999975  0.59345571  0.54283319  1
  C  C46  1  0.50000000  0.58632457  0.70195364  1
  C  C47  1  0.50000004  0.58316291  0.86676084  1
  C  C48  1  0.49999985  0.63932491  0.54853694  1
  C  C49  1  0.49999999  0.63492426  0.70843113  1
  C  C50  1  0.50000009  0.63178170  0.87316809  1
  C  C51  1  0.49999996  0.66183016  0.63041209  1
  C  C52  1  0.50000003  0.65748679  0.79381440  1
  C  C53  1  0.50000018  0.65446930  0.95618797  1
  C  C54  1  0.49999994  0.71040109  0.63401869  1
  C  C55  1  0.50000000  0.70563184  0.79903767  1
  C  C56  1  0.50000018  0.70069562  0.96122323  1
  C  C57  1  0.49999991  0.73687240  0.55575393  1
  C  C58  1  0.49999992  0.73178060  0.71851469  1
  C  C59  1  0.50000009  0.72747097  0.88384201  1
  C  C60  1  0.49999986  0.78365630  0.56041146  1
  C  C61  1  0.49999988  0.77996807  0.72339895  1
  C  C62  1  0.50000009  0.77671419  0.88929988  1
  C  C63  1  0.49999985  0.80517724  0.64273619  1
  C  C64  1  0.49999995  0.80089074  0.80742514  1
  C  C65  1  0.50000021  0.80015488  0.96940350  1
  H  H66  1  0.49999987  0.15164352  0.57436719  1
  H  H67  1  0.49999995  0.16010456  0.73302608  1
  H  H68  1  0.50000003  0.16555786  0.89378402  1
  H  H69  1  0.49999982  0.84181469  0.64647199  1
  H  H70  1  0.49999994  0.83755731  0.81030238  1
  H  H71  1  0.50000017  0.83683287  0.96850627  1
  H  H72  1  0.49999987  0.20049748  0.49654201  1
  H  H73  1  0.49999986  0.26756023  0.48995195  1
  H  H74  1  0.49999972  0.34264767  0.47562871  1
  H  H75  1  0.50000001  0.38096631  0.11514139  1
  H  H76  1  0.50000001  0.37946169  0.27770308  1
  H  H77  1  0.50000023  0.38281945  0.43826228  1
  H  H78  1  0.49999999  0.54732914  0.11632442  1
  H  H79  1  0.50000003  0.54776660  0.27943908  1
  H  H80  1  0.50000043  0.54372593  0.43682325  1
  H  H81  1  0.49999945  0.58327141  0.47405922  1
  H  H82  1  0.49999977  0.65790271  0.48556199  1
  H  H83  1  0.49999984  0.72105176  0.48980807  1
  H  H84  1  0.49999982  0.80317106  0.49829670  1
  H  H85  1  0.50000023  0.21222576  0.03294519  1
  H  H86  1  0.50000021  0.29381529  0.02299308  1
  H  H87  1  0.50000002  0.35355171  0.00954904  1
  H  H88  1  0.50000002  0.57548111  0.00858337  1
  H  H89  1  0.50000025  0.63596324  0.01925795  1
  H  H90  1  0.50000025  0.71642877  0.02736018  1
  H  H91  1  0.50000031  0.78401999  0.03504735  1
