# generated using pymatgen
data_H13C33
_symmetry_space_group_name_H-M   'P 1'
_cell_length_a   10.00000000
_cell_length_b   29.89204000
_cell_length_c   14.83940245
_cell_angle_alpha   90.00000000
_cell_angle_beta   90.00000000
_cell_angle_gamma   90.00000000
_symmetry_Int_Tables_number   1
_chemical_formula_structural   H13C33
_chemical_formula_sum   'H26 C66'
_cell_volume   4435.80011623
_cell_formula_units_Z   2
loop_
 _symmetry_equiv_pos_site_id
 _symmetry_equiv_pos_as_xyz
  1  'x, y, z'
loop_
 _atom_site_type_symbol
 _atom_site_label
 _atom_site_symmetry_multiplicity
 _atom_site_fract_x
 _atom_site_fract_y
 _atom_site_fract_z
 _atom_site_occupancy
  C  C0  1  0.49999921  0.19537821  0.54684650  1
  C  C1  1  0.49999950  0.19802288  0.71025643  1
  C  C2  1  0.50000049  0.19683047  0.87565584  1
  C  C3  1  0.49999897  0.22027163  0.62573202  1
  C  C4  1  0.49999977  0.22077995  0.79308599  1
  C  C5  1  0.50000156  0.21971033  0.95700079  1
  C  C6  1  0.49999877  0.26951831  0.62741637  1
  C  C7  1  0.49999982  0.26909250  0.79487759  1
  C  C8  1  0.50000167  0.26663334  0.95876710  1
  C  C9  1  0.49999827  0.29452088  0.54712750  1
  C  C10  1  0.49999945  0.29309857  0.71105459  1
  C  C11  1  0.50000078  0.29218805  0.87871168  1
  C  C12  1  0.49999817  0.34075922  0.54792858  1
  C  C13  1  0.49999959  0.34113400  0.71208279  1
  C  C14  1  0.50000100  0.34110168  0.87925115  1
  C  C15  1  0.49999881  0.36512777  0.62947644  1
  C  C16  1  0.50000021  0.36514871  0.79648082  1
  C  C17  1  0.50000199  0.36613411  0.95993256  1
  C  C18  1  0.49999881  0.41361871  0.63018670  1
  C  C19  1  0.50000039  0.41325155  0.79691088  1
  C  C20  1  0.50000208  0.41248267  0.96013763  1
  C  C21  1  0.49999793  0.43816655  0.54912216  1
  C  C22  1  0.49999983  0.43732233  0.71319437  1
  C  C23  1  0.50000130  0.43753452  0.87946998  1
  C  C24  1  0.49999835  0.48419505  0.54929170  1
  C  C25  1  0.49999998  0.48530107  0.71337916  1
  C  C26  1  0.50000112  0.48651592  0.87926658  1
  C  C27  1  0.49999930  0.50864702  0.63059094  1
  C  C28  1  0.50000044  0.51032200  0.79631735  1
  C  C29  1  0.50000134  0.51198940  0.95951298  1
  C  C30  1  0.49999948  0.55689487  0.63050034  1
  C  C31  1  0.50000034  0.55863921  0.79549911  1
  C  C32  1  0.50000121  0.55839007  0.95867681  1
  C  C33  1  0.49999871  0.58016476  0.54883034  1
  C  C34  1  0.50000013  0.58233499  0.71097612  1
  C  C35  1  0.50000073  0.58320331  0.87756277  1
  C  C36  1  0.49999890  0.62590296  0.54621298  1
  C  C37  1  0.50000015  0.63067769  0.70785141  1
  C  C38  1  0.50000049  0.63233075  0.87530940  1
  C  C39  1  0.49999974  0.65395692  0.62302210  1
  C  C40  1  0.50000032  0.65537073  0.79048614  1
  C  C41  1  0.50000026  0.65797661  0.95436892  1
  C  C42  1  0.50000002  0.71106993  0.12274455  1
  C  C43  1  0.50000004  0.71391415  0.28651787  1
  C  C44  1  0.50000027  0.71232928  0.44801491  1
  C  C45  1  0.49999995  0.70299544  0.61911514  1
  C  C46  1  0.50000013  0.70328337  0.78785131  1
  C  C47  1  0.50000011  0.70508408  0.95450599  1
  C  C48  1  0.50000002  0.73093048  0.03874627  1
  C  C49  1  0.49999999  0.73594057  0.20404030  1
  C  C50  1  0.50000003  0.73738388  0.36809658  1
  C  C51  1  0.49999999  0.72945715  0.53495607  1
  C  C52  1  0.50000003  0.72644056  0.70216371  1
  C  C53  1  0.50000009  0.72788454  0.87048426  1
  C  C54  1  0.50000003  0.77975617  0.03603602  1
  C  C55  1  0.49999997  0.78464137  0.20309188  1
  C  C56  1  0.49999989  0.78563818  0.36996570  1
  C  C57  1  0.49999991  0.77855942  0.53772981  1
  C  C58  1  0.50000000  0.77526397  0.70340839  1
  C  C59  1  0.50000004  0.77649982  0.86960805  1
  C  C60  1  0.50000002  0.80484194  0.11699922  1
  C  C61  1  0.49999990  0.80833840  0.28609251  1
  C  C62  1  0.49999991  0.80458908  0.45740656  1
  C  C63  1  0.49999994  0.79956483  0.62244951  1
  C  C64  1  0.49999999  0.79843086  0.78607814  1
  C  C65  1  0.50000006  0.80074517  0.95102231  1
  H  H66  1  0.49999978  0.15873343  0.55014794  1
  H  H67  1  0.49999985  0.16130280  0.71064705  1
  H  H68  1  0.50000027  0.16014311  0.87367067  1
  H  H69  1  0.50000005  0.84146703  0.11219846  1
  H  H70  1  0.49999985  0.84505827  0.28475189  1
  H  H71  1  0.49999996  0.84113140  0.46496356  1
  H  H72  1  0.49999999  0.83624201  0.62568097  1
  H  H73  1  0.49999994  0.83514463  0.78485900  1
  H  H74  1  0.50000008  0.83744064  0.94798087  1
  H  H75  1  0.49999898  0.21040168  0.47965401  1
  H  H76  1  0.49999829  0.27721151  0.48217638  1
  H  H77  1  0.49999813  0.35828135  0.48326279  1
  H  H78  1  0.49999757  0.42095305  0.48424207  1
  H  H79  1  0.49999847  0.50140793  0.48445674  1
  H  H80  1  0.49999831  0.56243813  0.48453975  1
  H  H81  1  0.49999816  0.63880371  0.47898478  1
  H  H82  1  0.50000008  0.67462210  0.12975845  1
  H  H83  1  0.50000004  0.67719818  0.28785725  1
  H  H84  1  0.50000088  0.67727842  0.43241850  1
  H  H85  1  0.50000184  0.20095706  0.02046622  1
  H  H86  1  0.50000201  0.28334856  0.02427616  1
  H  H87  1  0.50000251  0.34880886  0.02480014  1
  H  H88  1  0.50000258  0.42969672  0.02513307  1
  H  H89  1  0.50000131  0.49509311  0.02489033  1
  H  H90  1  0.50000128  0.57568813  0.02366853  1
  H  H91  1  0.50000009  0.64060484  0.01902774  1
