# generated using pymatgen
data_HC3
_symmetry_space_group_name_H-M   'P 1'
_cell_length_a   10.00000000
_cell_length_b   25.62946000
_cell_length_c   14.84427211
_cell_angle_alpha   90.00000000
_cell_angle_beta   90.00000000
_cell_angle_gamma   90.00000000
_symmetry_Int_Tables_number   1
_chemical_formula_structural   HC3
_chemical_formula_sum   'H20 C60'
_cell_volume   3804.50678366
_cell_formula_units_Z   20
loop_
 _symmetry_equiv_pos_site_id
 _symmetry_equiv_pos_as_xyz
  1  'x, y, z'
loop_
 _atom_site_type_symbol
 _atom_site_label
 _atom_site_symmetry_multiplicity
 _atom_site_fract_x
 _atom_site_fract_y
 _atom_site_fract_z
 _atom_site_occupancy
  C  C0  1  0.49999885  0.23244120  0.02968291  1
  C  C1  1  0.49999708  0.23083582  0.19788566  1
  C  C2  1  0.49999678  0.23227279  0.36665007  1
  C  C3  1  0.49999705  0.23468886  0.53310943  1
  C  C4  1  0.49999807  0.23584465  0.69788965  1
  C  C5  1  0.49999906  0.23479499  0.86290942  1
  C  C6  1  0.49999878  0.25770352  0.11428810  1
  C  C7  1  0.49999758  0.25725213  0.28177085  1
  C  C8  1  0.49999761  0.26011481  0.44927857  1
  C  C9  1  0.49999783  0.26247637  0.61513448  1
  C  C10  1  0.49999883  0.26246815  0.78067130  1
  C  C11  1  0.49999960  0.26017741  0.94707111  1
  C  C12  1  0.50000053  0.31428603  0.11469604  1
  C  C13  1  0.49999958  0.31362566  0.28146375  1
  C  C14  1  0.49999906  0.31671829  0.44906861  1
  C  C15  1  0.49999866  0.31922646  0.61502994  1
  C  C16  1  0.49999975  0.31912479  0.78076711  1
  C  C17  1  0.50000054  0.31671798  0.94767955  1
  C  C18  1  0.50000119  0.34282536  0.03230569  1
  C  C19  1  0.50000122  0.34107443  0.19845661  1
  C  C20  1  0.50000030  0.34163976  0.36402108  1
  C  C21  1  0.49999918  0.34620957  0.53146172  1
  C  C22  1  0.49999996  0.34752300  0.69766719  1
  C  C23  1  0.50000069  0.34532028  0.86494114  1
  C  C24  1  0.50000188  0.39896761  0.03424154  1
  C  C25  1  0.50000306  0.39726357  0.19894610  1
  C  C26  1  0.50000496  0.39730821  0.36296477  1
  C  C27  1  0.50000267  0.40324020  0.53030523  1
  C  C28  1  0.50000078  0.40440924  0.69737261  1
  C  C29  1  0.50000148  0.40139835  0.86564795  1
  C  C30  1  0.50000284  0.42442647  0.11647861  1
  C  C31  1  0.50000540  0.42415550  0.28076301  1
  C  C32  1  0.50000997  0.42511289  0.44442461  1
  C  C33  1  0.50000060  0.43337702  0.61528752  1
  C  C34  1  0.50000154  0.43079612  0.78363607  1
  C  C35  1  0.50000184  0.42776052  0.94975058  1
  C  C36  1  0.49999804  0.49090436  0.62115396  1
  C  C37  1  0.50000254  0.48660045  0.78793667  1
  C  C38  1  0.50000209  0.48204804  0.95103848  1
  C  C39  1  0.49999056  0.52565199  0.54652785  1
  C  C40  1  0.50000134  0.51692663  0.70719683  1
  C  C41  1  0.50000281  0.51223657  0.87348262  1
  C  C42  1  0.49999448  0.57913151  0.55304760  1
  C  C43  1  0.50000096  0.57338258  0.71447994  1
  C  C44  1  0.50000245  0.56884933  0.88068848  1
  C  C45  1  0.49999978  0.60491227  0.63614764  1
  C  C46  1  0.50000142  0.59912521  0.80106734  1
  C  C47  1  0.50000291  0.59485670  0.96462116  1
  C  C48  1  0.49999964  0.66155065  0.64098473  1
  C  C49  1  0.50000073  0.65521138  0.80717598  1
  C  C50  1  0.50000197  0.64873046  0.97042967  1
  C  C51  1  0.49999792  0.69297459  0.56292371  1
  C  C52  1  0.50000024  0.68600994  0.72652956  1
  C  C53  1  0.50000086  0.68025891  0.89295340  1
  C  C54  1  0.49999847  0.74750246  0.56885705  1
  C  C55  1  0.50000022  0.74214307  0.73261234  1
  C  C56  1  0.50000023  0.73763524  0.89939626  1
  C  C57  1  0.50000008  0.77207119  0.65213213  1
  C  C58  1  0.50000014  0.76619296  0.81745316  1
  C  C59  1  0.50000004  0.76471214  0.98024695  1
  H  H60  1  0.49999815  0.18965217  0.02741137  1
  H  H61  1  0.49999547  0.18800575  0.19743266  1
  H  H62  1  0.49999537  0.18947604  0.36918894  1
  H  H63  1  0.49999606  0.19192866  0.53518530  1
  H  H64  1  0.49999784  0.19303425  0.69791126  1
  H  H65  1  0.49999886  0.19199146  0.86050065  1
  H  H66  1  0.50000123  0.81476790  0.65684627  1
  H  H67  1  0.50000014  0.80895958  0.82082604  1
  H  H68  1  0.49999926  0.80748526  0.97956070  1
  H  H69  1  0.50000368  0.46699698  0.12077787  1
  H  H70  1  0.50000631  0.46696110  0.28050818  1
  H  H71  1  0.50002406  0.46639861  0.43290689  1
  H  H72  1  0.49997653  0.51273228  0.47778729  1
  H  H73  1  0.49999094  0.60127915  0.49015032  1
  H  H74  1  0.49999582  0.67503480  0.49613514  1
  H  H75  1  0.49999806  0.77081431  0.50702543  1
  H  H76  1  0.50000132  0.50187758  0.01569210  1
  H  H77  1  0.50000423  0.57299009  0.02783882  1
  H  H78  1  0.50000219  0.66681911  0.03719808  1
  H  H79  1  0.49999978  0.74591679  0.04631461  1
