# generated using pymatgen
data_HC3
_symmetry_space_group_name_H-M   'P 1'
_cell_length_a   10.00000000
_cell_length_b   29.89204000
_cell_length_c   14.91321478
_cell_angle_alpha   90.00000000
_cell_angle_beta   90.00000000
_cell_angle_gamma   90.00000000
_symmetry_Int_Tables_number   1
_chemical_formula_structural   HC3
_chemical_formula_sum   'H24 C72'
_cell_volume   4457.86412872
_cell_formula_units_Z   24
loop_
 _symmetry_equiv_pos_site_id
 _symmetry_equiv_pos_as_xyz
  1  'x, y, z'
loop_
 _atom_site_type_symbol
 _atom_site_label
 _atom_site_symmetry_multiplicity
 _atom_site_fract_x
 _atom_site_fract_y
 _atom_site_fract_z
 _atom_site_occupancy
  C  C0  1  0.49999871  0.20143903  0.51680235  1
  C  C1  1  0.49999953  0.19996809  0.67910704  1
  C  C2  1  0.50000089  0.19494871  0.84368740  1
  C  C3  1  0.49999905  0.22444152  0.59751329  1
  C  C4  1  0.49999996  0.22060873  0.76351860  1
  C  C5  1  0.50000157  0.21598768  0.92664712  1
  C  C6  1  0.49999886  0.27358384  0.60378955  1
  C  C7  1  0.49999935  0.26868115  0.76933342  1
  C  C8  1  0.50000075  0.26276200  0.93221932  1
  C  C9  1  0.49999839  0.30053008  0.52657317  1
  C  C10  1  0.49999891  0.29505697  0.68907973  1
  C  C11  1  0.49999913  0.28965146  0.85435064  1
  C  C12  1  0.49999830  0.34671496  0.53231474  1
  C  C13  1  0.49999851  0.34312896  0.69498304  1
  C  C14  1  0.49999862  0.33820773  0.85860482  1
  C  C15  1  0.49999854  0.36900293  0.61580773  1
  C  C16  1  0.49999837  0.36530675  0.78083781  1
  C  C17  1  0.50000502  0.36028986  0.94111642  1
  C  C18  1  0.49999870  0.41750499  0.62311040  1
  C  C19  1  0.49999881  0.41376688  0.78800071  1
  C  C20  1  0.50001102  0.40609220  0.94752597  1
  C  C21  1  0.49999966  0.44323717  0.54601314  1
  C  C22  1  0.49999854  0.43987616  0.70780623  1
  C  C23  1  0.50000262  0.43607733  0.87340350  1
  C  C24  1  0.49998958  0.49085555  0.04953688  1
  C  C25  1  0.49999700  0.48982797  0.21399667  1
  C  C26  1  0.49999980  0.49068081  0.38023468  1
  C  C27  1  0.49999961  0.48973451  0.54685907  1
  C  C28  1  0.49999957  0.48784810  0.71176050  1
  C  C29  1  0.49999993  0.48537265  0.87896120  1
  C  C30  1  0.49999672  0.51341172  0.13215240  1
  C  C31  1  0.49999921  0.51256855  0.29636275  1
  C  C32  1  0.49999973  0.51338605  0.46192281  1
  C  C33  1  0.49999941  0.51311468  0.63009296  1
  C  C34  1  0.49999983  0.51073431  0.79730254  1
  C  C35  1  0.49999771  0.51042166  0.96416378  1
  C  C36  1  0.50000114  0.56102157  0.13142825  1
  C  C37  1  0.49999976  0.56048311  0.29670121  1
  C  C38  1  0.49999940  0.56137686  0.46367793  1
  C  C39  1  0.49999920  0.56141052  0.63054588  1
  C  C40  1  0.50000008  0.55967637  0.79682770  1
  C  C41  1  0.50000141  0.55907762  0.96337143  1
  C  C42  1  0.50000122  0.58316414  0.04701334  1
  C  C43  1  0.50000107  0.58423677  0.21430433  1
  C  C44  1  0.49999962  0.58371948  0.37947716  1
  C  C45  1  0.49999913  0.58540267  0.54736127  1
  C  C46  1  0.49999984  0.58494247  0.71374845  1
  C  C47  1  0.50000122  0.58300763  0.88015124  1
  C  C48  1  0.50000076  0.63111404  0.04868337  1
  C  C49  1  0.50000108  0.63215309  0.21442407  1
  C  C50  1  0.50000221  0.63140123  0.37874959  1
  C  C51  1  0.50000121  0.63407304  0.54652749  1
  C  C52  1  0.50000001  0.63395004  0.71315066  1
  C  C53  1  0.50000092  0.63126957  0.88058512  1
  C  C54  1  0.50000048  0.65392315  0.13037984  1
  C  C55  1  0.50000204  0.65492644  0.29679794  1
  C  C56  1  0.50000615  0.65392358  0.46141564  1
  C  C57  1  0.49999977  0.65928222  0.63126718  1
  C  C58  1  0.50000041  0.65650161  0.79900094  1
  C  C59  1  0.50000072  0.65459619  0.96382531  1
  C  C60  1  0.49999817  0.70887756  0.63647288  1
  C  C61  1  0.50000098  0.70442868  0.80308108  1
  C  C62  1  0.50000052  0.70113942  0.96479106  1
  C  C63  1  0.49999286  0.73964996  0.56341792  1
  C  C64  1  0.50000076  0.73011695  0.72283111  1
  C  C65  1  0.50000098  0.72673519  0.88813320  1
  C  C66  1  0.49999720  0.78623056  0.57168416  1
  C  C67  1  0.50000116  0.77864712  0.73151127  1
  C  C68  1  0.50000089  0.77569519  0.89665689  1
  C  C69  1  0.50000173  0.80626090  0.65472153  1
  C  C70  1  0.50000069  0.79966537  0.81539936  1
  C  C71  1  0.50000097  0.79842186  0.97757388  1
  H  H72  1  0.49999853  0.16477558  0.51735101  1
  H  H73  1  0.49999960  0.16330882  0.67599124  1
  H  H74  1  0.50000120  0.15837150  0.83842772  1
  H  H75  1  0.50000313  0.84267552  0.66281925  1
  H  H76  1  0.50000016  0.83632810  0.81737722  1
  H  H77  1  0.50000069  0.83506917  0.97760079  1
  H  H78  1  0.49999816  0.21792733  0.45136350  1
  H  H79  1  0.49999807  0.28492976  0.46022393  1
  H  H80  1  0.49999797  0.36562224  0.46963440  1
  H  H81  1  0.50000040  0.42623696  0.48172278  1
  H  H82  1  0.49997088  0.45542224  0.05953922  1
  H  H83  1  0.49999663  0.45309891  0.21332602  1
  H  H84  1  0.49999994  0.45416279  0.37791953  1
  H  H85  1  0.49999997  0.69044249  0.13224647  1
  H  H86  1  0.50000188  0.69165711  0.29724766  1
  H  H87  1  0.50001741  0.68947951  0.45266329  1
  H  H88  1  0.49998056  0.72963653  0.49426929  1
  H  H89  1  0.49999543  0.80643216  0.51035452  1
  H  H90  1  0.50000294  0.19606576  -0.01160878  1
  H  H91  1  0.50000136  0.27818724  -0.00136036  1
  H  H92  1  0.50000884  0.34131381  0.00367387  1
  H  H93  1  0.50002938  0.41661845  0.01616966  1
  H  H94  1  0.50000017  0.71837575  0.02886156  1
  H  H95  1  0.50000108  0.78193087  0.04300419  1
