# generated using pymatgen
data_H3C17
_symmetry_space_group_name_H-M   'P 1'
_cell_length_a   10.00000000
_cell_length_b   29.89204000
_cell_length_c   14.84282723
_cell_angle_alpha   90.00000000
_cell_angle_beta   90.00000000
_cell_angle_gamma   90.00000000
_symmetry_Int_Tables_number   1
_chemical_formula_structural   H3C17
_chemical_formula_sum   'H18 C102'
_cell_volume   4436.82385199
_cell_formula_units_Z   6
loop_
 _symmetry_equiv_pos_site_id
 _symmetry_equiv_pos_as_xyz
  1  'x, y, z'
loop_
 _atom_site_type_symbol
 _atom_site_label
 _atom_site_symmetry_multiplicity
 _atom_site_fract_x
 _atom_site_fract_y
 _atom_site_fract_z
 _atom_site_occupancy
  C  C0  1  0.49999974  0.83614396  0.53260692  1
  C  C1  1  0.50000020  0.83583707  0.69509746  1
  C  C2  1  0.50000015  0.84195632  0.85679701  1
  C  C3  1  0.50000011  0.15187248  0.56066952  1
  C  C4  1  0.50000005  0.16485235  0.71559061  1
  C  C5  1  0.49999989  0.16563112  0.87950570  1
  C  C6  1  0.50000007  0.18455074  0.62809595  1
  C  C7  1  0.49999999  0.18864308  0.79549339  1
  C  C8  1  0.49999988  0.18889939  0.95886961  1
  C  C9  1  0.49999996  0.23861234  0.12675856  1
  C  C10  1  0.49999994  0.23880140  0.29228612  1
  C  C11  1  0.50000003  0.23878757  0.45692768  1
  C  C12  1  0.50000002  0.23417520  0.62483491  1
  C  C13  1  0.50000000  0.23655455  0.79338150  1
  C  C14  1  0.49999995  0.23649146  0.95973989  1
  C  C15  1  0.49999997  0.26073619  0.04384039  1
  C  C16  1  0.49999996  0.26161874  0.20959579  1
  C  C17  1  0.49999998  0.26199584  0.37460098  1
  C  C18  1  0.50000002  0.25939631  0.54147993  1
  C  C19  1  0.50000001  0.25889890  0.70761901  1
  C  C20  1  0.49999998  0.26040116  0.87631312  1
  C  C21  1  0.49999997  0.30885863  0.04248231  1
  C  C22  1  0.49999998  0.30967298  0.20906745  1
  C  C23  1  0.50000000  0.30981962  0.37521965  1
  C  C24  1  0.50000000  0.30790362  0.54251188  1
  C  C25  1  0.50000000  0.30734137  0.70843151  1
  C  C26  1  0.49999998  0.30843995  0.87584598  1
  C  C27  1  0.49999998  0.33285118  0.12552919  1
  C  C28  1  0.49999999  0.33338159  0.29214423  1
  C  C29  1  0.50000001  0.33244238  0.45942306  1
  C  C30  1  0.50000000  0.33166357  0.62569401  1
  C  C31  1  0.49999999  0.33162767  0.79193353  1
  C  C32  1  0.49999997  0.33241912  0.95898478  1
  C  C33  1  0.49999998  0.38066393  0.12541442  1
  C  C34  1  0.50000001  0.38097395  0.29238112  1
  C  C35  1  0.50000002  0.38032685  0.45972911  1
  C  C36  1  0.50000000  0.37982011  0.62602428  1
  C  C37  1  0.49999999  0.37977741  0.79212853  1
  C  C38  1  0.49999996  0.38028485  0.95878126  1
  C  C39  1  0.49999996  0.40425233  0.04200814  1
  C  C40  1  0.49999999  0.40441164  0.20877816  1
  C  C41  1  0.50000002  0.40421071  0.37630613  1
  C  C42  1  0.50000002  0.40399410  0.54311206  1
  C  C43  1  0.50000000  0.40384532  0.70914170  1
  C  C44  1  0.49999997  0.40388864  0.87529054  1
  C  C45  1  0.49999996  0.45204455  0.04193902  1
  C  C46  1  0.49999999  0.45203662  0.20891429  1
  C  C47  1  0.50000003  0.45192154  0.37644905  1
  C  C48  1  0.50000002  0.45194306  0.54329615  1
  C  C49  1  0.50000000  0.45194768  0.70942814  1
  C  C50  1  0.49999997  0.45192468  0.87544926  1
  C  C51  1  0.49999997  0.47567261  0.12542015  1
  C  C52  1  0.50000001  0.47541767  0.29281960  1
  C  C53  1  0.50000003  0.47567967  0.45992213  1
  C  C54  1  0.50000001  0.47603038  0.62649532  1
  C  C55  1  0.49999999  0.47603146  0.79250231  1
  C  C56  1  0.49999996  0.47590051  0.95860750  1
  C  C57  1  0.49999997  0.52337266  0.12553327  1
  C  C58  1  0.50000001  0.52302059  0.29311881  1
  C  C59  1  0.50000001  0.52346539  0.46008191  1
  C  C60  1  0.50000001  0.52406796  0.62674697  1
  C  C61  1  0.49999999  0.52415888  0.79271892  1
  C  C62  1  0.49999997  0.52386115  0.95861623  1
  C  C63  1  0.49999997  0.54734389  0.04210519  1
  C  C64  1  0.50000000  0.54641887  0.20957750  1
  C  C65  1  0.50000000  0.54681475  0.37647661  1
  C  C66  1  0.50000001  0.54764169  0.54328151  1
  C  C67  1  0.49999999  0.54831266  0.70987855  1
  C  C68  1  0.49999998  0.54818240  0.87579305  1
  C  C69  1  0.49999998  0.59521098  0.04223222  1
  C  C70  1  0.50000000  0.59388853  0.20978035  1
  C  C71  1  0.49999999  0.59457649  0.37629555  1
  C  C72  1  0.49999999  0.59555192  0.54323465  1
  C  C73  1  0.49999999  0.59658058  0.71031316  1
  C  C74  1  0.49999998  0.59640525  0.87607093  1
  C  C75  1  0.50000000  0.61734919  0.12678389  1
  C  C76  1  0.50000000  0.61766217  0.29278170  1
  C  C77  1  0.49999999  0.61872611  0.45926995  1
  C  C78  1  0.49999999  0.61980098  0.62652664  1
  C  C79  1  0.50000000  0.62114685  0.79349843  1
  C  C80  1  0.50000000  0.62005785  0.95921463  1
  C  C81  1  0.49999997  0.66489604  0.12789699  1
  C  C82  1  0.50000001  0.66561782  0.29230457  1
  C  C83  1  0.49999999  0.66664648  0.45758980  1
  C  C84  1  0.49999997  0.66783822  0.62611727  1
  C  C85  1  0.50000005  0.66991658  0.79433697  1
  C  C86  1  0.50000003  0.66866903  0.96051095  1
  C  C87  1  0.49999995  0.68807012  0.04594914  1
  C  C88  1  0.49999998  0.68836410  0.20982525  1
  C  C89  1  0.50000003  0.68868276  0.37504942  1
  C  C90  1  0.49999996  0.69103073  0.54223481  1
  C  C91  1  0.50000002  0.69282636  0.70842458  1
  C  C92  1  0.50000008  0.69478630  0.87693464  1
  C  C93  1  0.49999995  0.73774502  0.54164774  1
  C  C94  1  0.50000002  0.74075769  0.70498461  1
  C  C95  1  0.50000012  0.74444222  0.87307374  1
  C  C96  1  0.49999995  0.76322192  0.61942472  1
  C  C97  1  0.50000010  0.76606363  0.78651538  1
  C  C98  1  0.50000022  0.77491846  0.94716422  1
  C  C99  1  0.50000005  0.81235086  0.61270404  1
  C  C100  1  0.50000010  0.81462392  0.77910303  1
  C  C101  1  0.50000032  0.82157420  0.93988853  1
  H  H102  1  0.49999981  0.87281363  0.53509964  1
  H  H103  1  0.50000032  0.87253245  0.69343065  1
  H  H104  1  0.50000003  0.87842538  0.84938883  1
  H  H105  1  0.50000024  0.11687610  0.58306321  1
  H  H106  1  0.50000000  0.12821262  0.71939501  1
  H  H107  1  0.49999985  0.12895697  0.87913073  1
  H  H108  1  0.49999884  0.82080124  0.46573093  1
  H  H109  1  0.50000005  0.15576211  0.48807283  1
  H  H110  1  0.49999996  0.20208764  0.12978670  1
  H  H111  1  0.49999988  0.20208231  0.29283023  1
  H  H112  1  0.50000012  0.20289712  0.45108863  1
  H  H113  1  0.49999985  0.72352732  0.05519092  1
  H  H114  1  0.49999999  0.72506332  0.20918335  1
  H  H115  1  0.50000008  0.72517628  0.37142996  1
  H  H116  1  0.49999999  0.75533632  0.47741541  1
  H  H117  1  0.49999990  0.17025641  0.02219210  1
  H  H118  1  0.50000025  0.76454118  0.01648335  1
  H  H119  1  0.50000054  0.84162030  0.00176650  1
