# generated using pymatgen
data_H5C18
_symmetry_space_group_name_H-M   'P 1'
_cell_length_a   10.00000000
_cell_length_b   25.62946000
_cell_length_c   14.83556692
_cell_angle_alpha   90.00000000
_cell_angle_beta   90.00000000
_cell_angle_gamma   90.00000000
_symmetry_Int_Tables_number   1
_chemical_formula_structural   H5C18
_chemical_formula_sum   'H20 C72'
_cell_volume   3802.27569020
_cell_formula_units_Z   4
loop_
 _symmetry_equiv_pos_site_id
 _symmetry_equiv_pos_as_xyz
  1  'x, y, z'
loop_
 _atom_site_type_symbol
 _atom_site_label
 _atom_site_symmetry_multiplicity
 _atom_site_fract_x
 _atom_site_fract_y
 _atom_site_fract_z
 _atom_site_occupancy
  C  C0  1  0.49999975  0.80609620  0.51790486  1
  C  C1  1  0.50000340  0.80811641  0.68110876  1
  C  C2  1  0.50000416  0.81410544  0.84637969  1
  C  C3  1  0.49999708  0.19207982  0.04932462  1
  C  C4  1  0.49999877  0.19115092  0.21670668  1
  C  C5  1  0.49999800  0.19117212  0.38452595  1
  C  C6  1  0.49999670  0.19233966  0.55172794  1
  C  C7  1  0.49999607  0.19321539  0.71764023  1
  C  C8  1  0.49999510  0.19301727  0.88323618  1
  C  C9  1  0.49999912  0.21802074  0.13319301  1
  C  C10  1  0.49999924  0.21731220  0.30065630  1
  C  C11  1  0.49999798  0.21818527  0.46781498  1
  C  C12  1  0.49999738  0.21961977  0.63443472  1
  C  C13  1  0.49999666  0.22000950  0.80050505  1
  C  C14  1  0.49999740  0.21930297  0.96649711  1
  C  C15  1  0.50000114  0.27451381  0.13307233  1
  C  C16  1  0.50000074  0.27369331  0.30066378  1
  C  C17  1  0.49999952  0.27467249  0.46774425  1
  C  C18  1  0.49999919  0.27616287  0.63450324  1
  C  C19  1  0.49999950  0.27655405  0.80056562  1
  C  C20  1  0.50000047  0.27582507  0.96637099  1
  C  C21  1  0.50000185  0.30274140  0.04981821  1
  C  C22  1  0.50000211  0.30107618  0.21719949  1
  C  C23  1  0.50000081  0.30146724  0.38392243  1
  C  C24  1  0.50000001  0.30302752  0.55072753  1
  C  C25  1  0.50000005  0.30424629  0.71756981  1
  C  C26  1  0.50000154  0.30422774  0.88364579  1
  C  C27  1  0.50000314  0.35881055  0.04972834  1
  C  C28  1  0.50000307  0.35672299  0.21734938  1
  C  C29  1  0.50000169  0.35738962  0.38370045  1
  C  C30  1  0.50000090  0.35901826  0.55056787  1
  C  C31  1  0.50000093  0.36054324  0.71775252  1
  C  C32  1  0.50000332  0.36062746  0.88364344  1
  C  C33  1  0.50000305  0.38430004  0.13445640  1
  C  C34  1  0.50000219  0.38435833  0.30021145  1
  C  C35  1  0.50000149  0.38566489  0.46637197  1
  C  C36  1  0.50000095  0.38729531  0.63383735  1
  C  C37  1  0.50000170  0.38912924  0.80085320  1
  C  C38  1  0.50000371  0.38804525  0.96691197  1
  C  C39  1  0.49999667  0.43979278  0.13541903  1
  C  C40  1  0.50000119  0.44037272  0.29972660  1
  C  C41  1  0.50000133  0.44158784  0.46461359  1
  C  C42  1  0.50000056  0.44326639  0.63335881  1
  C  C43  1  0.50000134  0.44595239  0.80113783  1
  C  C44  1  0.49999860  0.44494964  0.96787503  1
  C  C45  1  0.49998665  0.46714404  0.05363017  1
  C  C46  1  0.49999748  0.46698397  0.21745020  1
  C  C47  1  0.50000142  0.46734471  0.38240363  1
  C  C48  1  0.50000004  0.46993903  0.54932415  1
  C  C49  1  0.50000010  0.47263144  0.71533640  1
  C  C50  1  0.50000183  0.47513781  0.88322431  1
  C  C51  1  0.49999820  0.52414691  0.54822246  1
  C  C52  1  0.49999735  0.52847165  0.71126826  1
  C  C53  1  0.50000529  0.53274175  0.87798136  1
  C  C54  1  0.49999671  0.55424632  0.62583707  1
  C  C55  1  0.49999815  0.55886343  0.79198733  1
  C  C56  1  0.50001824  0.56763350  0.95266492  1
  C  C57  1  0.49999671  0.61077949  0.61836210  1
  C  C58  1  0.49999693  0.61533864  0.78457046  1
  C  C59  1  0.50000779  0.62113489  0.94602250  1
  C  C60  1  0.49999713  0.63670526  0.53429078  1
  C  C61  1  0.49999713  0.64105012  0.69797288  1
  C  C62  1  0.49999700  0.64694829  0.86287469  1
  C  C63  1  0.49999843  0.69055697  0.52852494  1
  C  C64  1  0.49999856  0.69711323  0.69180139  1
  C  C65  1  0.49999734  0.70362304  0.85806800  1
  C  C66  1  0.49999942  0.72212242  0.60598532  1
  C  C67  1  0.49999919  0.72798809  0.77237986  1
  C  C68  1  0.49999909  0.73522124  0.93599421  1
  C  C69  1  0.50000106  0.77944140  0.59925400  1
  C  C70  1  0.50000232  0.78408967  0.76602364  1
  C  C71  1  0.50000265  0.78975307  0.92984416  1
  H  H72  1  0.50000078  0.84883907  0.51784454  1
  H  H73  1  0.50000556  0.85088049  0.67767740  1
  H  H74  1  0.50000672  0.85675894  0.84116717  1
  H  H75  1  0.49999555  0.14928108  0.04801278  1
  H  H76  1  0.49999765  0.14832999  0.21622813  1
  H  H77  1  0.49999715  0.14836308  0.38519821  1
  H  H78  1  0.49999541  0.14952571  0.55322995  1
  H  H79  1  0.49999472  0.15041689  0.71811090  1
  H  H80  1  0.49999271  0.15022287  0.88244334  1
  H  H81  1  0.49999627  0.78694844  0.45208587  1
  H  H82  1  0.49996097  0.50841725  0.06450662  1
  H  H83  1  0.49999672  0.50977833  0.21710501  1
  H  H84  1  0.50000066  0.50991713  0.37856579  1
  H  H85  1  0.49999807  0.54404913  0.48367231  1
  H  H86  1  0.49999696  0.61477872  0.47107622  1
  H  H87  1  0.49999862  0.70860586  0.46173551  1
  H  H88  1  0.50004728  0.55500785  0.02166005  1
  H  H89  1  0.50001379  0.64334861  0.00890459  1
  H  H90  1  0.49999791  0.71745225  0.00293901  1
  H  H91  1  0.50000474  0.81320529  -0.00843739  1
