# generated using pymatgen
data_HC3
_symmetry_space_group_name_H-M   'P 1'
_cell_length_a   10.00000000
_cell_length_b   21.36688000
_cell_length_c   14.83521058
_cell_angle_alpha   90.00000000
_cell_angle_beta   90.00000000
_cell_angle_gamma   90.00000000
_symmetry_Int_Tables_number   1
_chemical_formula_structural   HC3
_chemical_formula_sum   'H16 C48'
_cell_volume   3169.82164191
_cell_formula_units_Z   16
loop_
 _symmetry_equiv_pos_site_id
 _symmetry_equiv_pos_as_xyz
  1  'x, y, z'
loop_
 _atom_site_type_symbol
 _atom_site_label
 _atom_site_symmetry_multiplicity
 _atom_site_fract_x
 _atom_site_fract_y
 _atom_site_fract_z
 _atom_site_occupancy
  C  C0  1  0.49999814  0.28026778  0.03632136  1
  C  C1  1  0.49999816  0.27838807  0.20413031  1
  C  C2  1  0.49999909  0.27991299  0.37308517  1
  C  C3  1  0.50000034  0.28279588  0.53977769  1
  C  C4  1  0.49999983  0.28429775  0.70454697  1
  C  C5  1  0.49999912  0.28306660  0.86964463  1
  C  C6  1  0.49999824  0.31074906  0.12067484  1
  C  C7  1  0.49999861  0.30996304  0.28815196  1
  C  C8  1  0.49999992  0.31323639  0.45580621  1
  C  C9  1  0.50000026  0.31625369  0.62177479  1
  C  C10  1  0.49999960  0.31622978  0.78732718  1
  C  C11  1  0.49999866  0.31360411  0.95374241  1
  C  C12  1  0.49999898  0.37863736  0.12107003  1
  C  C13  1  0.49999923  0.37757750  0.28779580  1
  C  C14  1  0.50000006  0.38111598  0.45551672  1
  C  C15  1  0.50000032  0.38431828  0.62151063  1
  C  C16  1  0.49999988  0.38424468  0.78725719  1
  C  C17  1  0.49999916  0.38150918  0.95419122  1
  C  C18  1  0.49999962  0.41296653  0.03872360  1
  C  C19  1  0.49999968  0.41065807  0.20489541  1
  C  C20  1  0.50000003  0.41107236  0.37046607  1
  C  C21  1  0.50000030  0.41648682  0.53786456  1
  C  C22  1  0.50000017  0.41834086  0.70403285  1
  C  C23  1  0.49999980  0.41573644  0.87141265  1
  C  C24  1  0.50000091  0.48038334  0.04049117  1
  C  C25  1  0.50000118  0.47804265  0.20525075  1
  C  C26  1  0.50000070  0.47785562  0.36924892  1
  C  C27  1  0.50000003  0.48477105  0.53654541  1
  C  C28  1  0.50000005  0.48662377  0.70344340  1
  C  C29  1  0.50000026  0.48311104  0.87208764  1
  C  C30  1  0.50000174  0.51076308  0.12288426  1
  C  C31  1  0.50000187  0.51017122  0.28719391  1
  C  C32  1  0.50000006  0.51116252  0.45069374  1
  C  C33  1  0.49999987  0.52110422  0.62090385  1
  C  C34  1  0.50000010  0.51818566  0.78991513  1
  C  C35  1  0.50000092  0.51498155  0.95615562  1
  C  C36  1  0.49999973  0.59043370  0.62574379  1
  C  C37  1  0.50000000  0.58515843  0.79394814  1
  C  C38  1  0.50000100  0.58041406  0.95736434  1
  C  C39  1  0.49999982  0.63274181  0.55167467  1
  C  C40  1  0.49999967  0.62051059  0.71245917  1
  C  C41  1  0.50000044  0.61626918  0.87980294  1
  C  C42  1  0.49999958  0.69798508  0.55890173  1
  C  C43  1  0.49999970  0.68837641  0.71998645  1
  C  C44  1  0.50000032  0.68500898  0.88659248  1
  C  C45  1  0.49999966  0.72647692  0.64210569  1
  C  C46  1  0.49999983  0.71796910  0.80416542  1
  C  C47  1  0.50000114  0.71836982  0.96669839  1
  H  H48  1  0.49999836  0.22891575  0.03439278  1
  H  H49  1  0.49999819  0.22700295  0.20365073  1
  H  H50  1  0.49999882  0.22861775  0.37582495  1
  H  H51  1  0.50000090  0.23150980  0.54213682  1
  H  H52  1  0.49999974  0.23295992  0.70429423  1
  H  H53  1  0.49999921  0.23171205  0.86741604  1
  H  H54  1  0.49999975  0.77747355  0.64935865  1
  H  H55  1  0.49999982  0.76927429  0.80590810  1
  H  H56  1  0.50000157  0.76964691  0.96420774  1
  H  H57  1  0.50000258  0.56180388  0.12698240  1
  H  H58  1  0.50000296  0.56147928  0.28695110  1
  H  H59  1  0.49999932  0.56073165  0.43958732  1
  H  H60  1  0.50000057  0.61745845  0.48270318  1
  H  H61  1  0.49999944  0.72597546  0.49697342  1
  H  H62  1  0.50000149  0.60464688  0.02194663  1
  H  H63  1  0.50000150  0.69703985  0.03368871  1
