# generated using pymatgen
data_H13C33
_symmetry_space_group_name_H-M   'P 1'
_cell_length_a   10.00000000
_cell_length_b   29.89204000
_cell_length_c   14.96152616
_cell_angle_alpha   90.00000000
_cell_angle_beta   90.00000000
_cell_angle_gamma   90.00000000
_symmetry_Int_Tables_number   1
_chemical_formula_structural   H13C33
_chemical_formula_sum   'H26 C66'
_cell_volume   4472.30538435
_cell_formula_units_Z   2
loop_
 _symmetry_equiv_pos_site_id
 _symmetry_equiv_pos_as_xyz
  1  'x, y, z'
loop_
 _atom_site_type_symbol
 _atom_site_label
 _atom_site_symmetry_multiplicity
 _atom_site_fract_x
 _atom_site_fract_y
 _atom_site_fract_z
 _atom_site_occupancy
  C  C0  1  0.49999995  0.20057246  0.54580536  1
  C  C1  1  0.49999956  0.20003771  0.70714855  1
  C  C2  1  0.49999974  0.19386824  0.86710180  1
  C  C3  1  0.49999980  0.22378865  0.62595496  1
  C  C4  1  0.50000002  0.22133043  0.79045066  1
  C  C5  1  0.50000088  0.21404104  0.94960703  1
  C  C6  1  0.49999969  0.27279463  0.63371898  1
  C  C7  1  0.50000133  0.26985476  0.79865834  1
  C  C8  1  0.50000371  0.26065225  0.95729449  1
  C  C9  1  0.49999951  0.29783714  0.55637136  1
  C  C10  1  0.50000011  0.29533772  0.71843602  1
  C  C11  1  0.50000459  0.29139811  0.88448650  1
  C  C12  1  0.50000868  0.34624227  0.05776569  1
  C  C13  1  0.50000916  0.34369523  0.22356095  1
  C  C14  1  0.50000187  0.34466094  0.38895914  1
  C  C15  1  0.50000003  0.34433079  0.55623923  1
  C  C16  1  0.49999951  0.34328887  0.72215984  1
  C  C17  1  0.50000535  0.34121705  0.88925453  1
  C  C18  1  0.50000762  0.36720498  0.14201836  1
  C  C19  1  0.50000242  0.36686296  0.30529000  1
  C  C20  1  0.50000070  0.36736326  0.47020993  1
  C  C21  1  0.50000005  0.36749076  0.63973902  1
  C  C22  1  0.49999965  0.36651267  0.80802790  1
  C  C23  1  0.50000713  0.36674759  0.97344992  1
  C  C24  1  0.49998108  0.41495749  0.14213568  1
  C  C25  1  0.49999746  0.41543274  0.30528914  1
  C  C26  1  0.50000099  0.41544770  0.47016635  1
  C  C27  1  0.50000034  0.41555314  0.63985237  1
  C  C28  1  0.49999944  0.41618763  0.80805655  1
  C  C29  1  0.49998608  0.41608516  0.97357137  1
  C  C30  1  0.49994153  0.43619957  0.05821558  1
  C  C31  1  0.49998213  0.43849596  0.22357364  1
  C  C32  1  0.50000016  0.43789255  0.38877708  1
  C  C33  1  0.50000010  0.43862083  0.55634755  1
  C  C34  1  0.49999959  0.43967260  0.72244593  1
  C  C35  1  0.49999939  0.44159782  0.88906932  1
  C  C36  1  0.49999915  0.48503905  0.55670877  1
  C  C37  1  0.49999324  0.48772261  0.71890244  1
  C  C38  1  0.50001597  0.49122119  0.88393919  1
  C  C39  1  0.49999472  0.51024209  0.63448051  1
  C  C40  1  0.49999382  0.51376335  0.79892764  1
  C  C41  1  0.50006343  0.52136583  0.95775277  1
  C  C42  1  0.49999557  0.55874231  0.62767051  1
  C  C43  1  0.49999039  0.56230823  0.79195530  1
  C  C44  1  0.50002358  0.56725302  0.95152713  1
  C  C45  1  0.49999870  0.58103460  0.54437090  1
  C  C46  1  0.49999315  0.58466992  0.70655832  1
  C  C47  1  0.49998768  0.58952351  0.86937278  1
  C  C48  1  0.49999978  0.62710330  0.53846584  1
  C  C49  1  0.49999512  0.63277212  0.70050997  1
  C  C50  1  0.49998846  0.63805543  0.86459797  1
  C  C51  1  0.49999848  0.65418806  0.61554654  1
  C  C52  1  0.49999365  0.65959472  0.78023299  1
  C  C53  1  0.49999292  0.66490029  0.94221154  1
  C  C54  1  0.49999950  0.70288846  0.60920174  1
  C  C55  1  0.49999782  0.70752870  0.77480924  1
  C  C56  1  0.49999793  0.71112812  0.93714459  1
  C  C57  1  0.49999994  0.72530244  0.52612627  1
  C  C58  1  0.49999955  0.72883757  0.68875462  1
  C  C59  1  0.49999889  0.73360477  0.85450418  1
  C  C60  1  0.50000006  0.77209468  0.52099441  1
  C  C61  1  0.50000018  0.77703617  0.68360076  1
  C  C62  1  0.50000022  0.78279124  0.84930553  1
  C  C63  1  0.50000016  0.79784169  0.59822572  1
  C  C64  1  0.50000030  0.80236215  0.76273045  1
  C  C65  1  0.50000033  0.81007790  0.92418130  1
  H  H66  1  0.49999995  0.16392560  0.54687577  1
  H  H67  1  0.49999929  0.16336002  0.70551356  1
  H  H68  1  0.49999897  0.15745862  0.85914528  1
  H  H69  1  0.50000007  0.83446671  0.59429620  1
  H  H70  1  0.50000025  0.83899145  0.75767865  1
  H  H71  1  0.50000053  0.84654679  0.91663182  1
  H  H72  1  0.50000004  0.21645687  0.48000931  1
  H  H73  1  0.49999937  0.28010241  0.49295139  1
  H  H74  1  0.50000543  0.31065356  0.06440518  1
  H  H75  1  0.50001300  0.30694085  0.22374170  1
  H  H76  1  0.50000260  0.30811124  0.38656455  1
  H  H77  1  0.49983341  0.47170923  0.06595197  1
  H  H78  1  0.49997866  0.47525501  0.22372406  1
  H  H79  1  0.49999867  0.47444164  0.38602089  1
  H  H80  1  0.50000166  0.50247729  0.49302619  1
  H  H81  1  0.49999984  0.56215087  0.48188055  1
  H  H82  1  0.50000135  0.64237414  0.47207232  1
  H  H83  1  0.49999979  0.70618362  0.46385803  1
  H  H84  1  0.49999986  0.78830377  0.45524638  1
  H  H85  1  0.50000035  0.19405671  0.01101691  1
  H  H86  1  0.50000529  0.27045645  0.02626838  1
  H  H87  1  0.50017364  0.51116348  0.02642471  1
  H  H88  1  0.50004219  0.58609105  0.01409971  1
  H  H89  1  0.49999304  0.64944389  0.00837482  1
  H  H90  1  0.50000070  0.73037517  -0.00064316  1
  H  H91  1  0.50000000  0.79694513  -0.00765415  1
