# generated using pymatgen
data_H2C5
_symmetry_space_group_name_H-M   'P 1'
_cell_length_a   10.00000000
_cell_length_b   25.62946000
_cell_length_c   14.85915144
_cell_angle_alpha   90.00000000
_cell_angle_beta   90.00000000
_cell_angle_gamma   90.00000000
_symmetry_Int_Tables_number   1
_chemical_formula_structural   H2C5
_chemical_formula_sum   'H24 C60'
_cell_volume   3808.32027398
_cell_formula_units_Z   12
loop_
 _symmetry_equiv_pos_site_id
 _symmetry_equiv_pos_as_xyz
  1  'x, y, z'
loop_
 _atom_site_type_symbol
 _atom_site_label
 _atom_site_symmetry_multiplicity
 _atom_site_fract_x
 _atom_site_fract_y
 _atom_site_fract_z
 _atom_site_occupancy
  C  C0  1  0.49998564  0.80658319  0.51077108  1
  C  C1  1  0.49999952  0.80787998  0.67350216  1
  C  C2  1  0.50000936  0.81418227  0.83849107  1
  C  C3  1  0.49999894  0.19031145  0.05829500  1
  C  C4  1  0.50000098  0.18464889  0.22782992  1
  C  C5  1  0.50000034  0.18581800  0.39729524  1
  C  C6  1  0.49999713  0.18981068  0.56509377  1
  C  C7  1  0.49999381  0.19414156  0.73127420  1
  C  C8  1  0.49999646  0.19504517  0.89458000  1
  C  C9  1  0.49999954  0.21240803  0.14520596  1
  C  C10  1  0.50000046  0.21071180  0.31201387  1
  C  C11  1  0.49999942  0.21402010  0.47936839  1
  C  C12  1  0.49999614  0.21836501  0.64655404  1
  C  C13  1  0.49999520  0.22235971  0.81289351  1
  C  C14  1  0.49999883  0.22052213  0.97824731  1
  C  C15  1  0.49999437  0.26878695  0.14746982  1
  C  C16  1  0.49999966  0.26750458  0.31174031  1
  C  C17  1  0.50000020  0.27076352  0.47674604  1
  C  C18  1  0.49999816  0.27497575  0.64498638  1
  C  C19  1  0.49999787  0.27934114  0.81312017  1
  C  C20  1  0.49999608  0.27789630  0.98039422  1
  C  C21  1  0.49998642  0.29828394  0.06727896  1
  C  C22  1  0.49999601  0.29467960  0.23035905  1
  C  C23  1  0.50000051  0.29514763  0.39389685  1
  C  C24  1  0.49999985  0.30054207  0.56049323  1
  C  C25  1  0.49999874  0.30483366  0.72639066  1
  C  C26  1  0.50000004  0.30798719  0.89511623  1
  C  C27  1  0.50000074  0.35505016  0.55845879  1
  C  C28  1  0.49999894  0.36052831  0.72148603  1
  C  C29  1  0.50000717  0.36537082  0.88850217  1
  C  C30  1  0.49999893  0.38568953  0.63566948  1
  C  C31  1  0.50000167  0.39093262  0.80211905  1
  C  C32  1  0.50002300  0.39992903  0.96309333  1
  C  C33  1  0.49999762  0.44231379  0.62871487  1
  C  C34  1  0.50000271  0.44727775  0.79461647  1
  C  C35  1  0.50001881  0.45343372  0.95611965  1
  C  C36  1  0.49999335  0.46811664  0.54482926  1
  C  C37  1  0.49999961  0.47282255  0.70807958  1
  C  C38  1  0.50000718  0.47898048  0.87264979  1
  C  C39  1  0.49999181  0.52187277  0.53852713  1
  C  C40  1  0.49999861  0.52888212  0.70159231  1
  C  C41  1  0.50000650  0.53547377  0.86693164  1
  C  C42  1  0.49999477  0.55373867  0.61592363  1
  C  C43  1  0.50000173  0.56038085  0.78168551  1
  C  C44  1  0.50001147  0.56687152  0.94491735  1
  C  C45  1  0.49999377  0.61048469  0.60964145  1
  C  C46  1  0.50000086  0.61627221  0.77599676  1
  C  C47  1  0.50001038  0.62064959  0.93961335  1
  C  C48  1  0.49999012  0.63657371  0.52592642  1
  C  C49  1  0.49999691  0.64129021  0.68927189  1
  C  C50  1  0.50000466  0.64675223  0.85608209  1
  C  C51  1  0.49998967  0.69051709  0.52040649  1
  C  C52  1  0.49999692  0.69721900  0.68357211  1
  C  C53  1  0.50000431  0.70352346  0.85062294  1
  C  C54  1  0.49999317  0.72211931  0.59780390  1
  C  C55  1  0.50000120  0.72778932  0.76471525  1
  C  C56  1  0.50000807  0.73538208  0.92817263  1
  C  C57  1  0.49999285  0.77944372  0.59146820  1
  C  C58  1  0.50000348  0.78393882  0.75843052  1
  C  C59  1  0.50001100  0.78992383  0.92196071  1
  H  H60  1  0.49998532  0.84935003  0.51198485  1
  H  H61  1  0.50000050  0.85064268  0.67010471  1
  H  H62  1  0.50001270  0.85684378  0.83293115  1
  H  H63  1  0.49999756  0.14767468  0.05128547  1
  H  H64  1  0.50000233  0.14183883  0.22644306  1
  H  H65  1  0.50000059  0.14301999  0.40025115  1
  H  H66  1  0.49999614  0.14703218  0.56880440  1
  H  H67  1  0.49999202  0.15138440  0.73514299  1
  H  H68  1  0.49999513  0.15223982  0.89286629  1
  H  H69  1  0.49997999  0.78777774  0.44473792  1
  H  H70  1  0.49996562  0.33953042  0.08124973  1
  H  H71  1  0.49999570  0.33752443  0.23159926  1
  H  H72  1  0.50000028  0.33769414  0.38862972  1
  H  H73  1  0.50000297  0.37443406  0.49340589  1
  H  H74  1  0.49999006  0.44574502  0.48224866  1
  H  H75  1  0.49998789  0.53943187  0.47150160  1
  H  H76  1  0.49998789  0.61425117  0.46325657  1
  H  H77  1  0.49998670  0.70876093  0.45384212  1
  H  H78  1  0.50004657  0.38619536  0.03146514  1
  H  H79  1  0.50002804  0.47584940  0.01864700  1
  H  H80  1  0.50001602  0.54899842  0.01165349  1
  H  H81  1  0.50001430  0.64300426  0.00225854  1
  H  H82  1  0.50000920  0.71765578  -0.00492968  1
  H  H83  1  0.50001481  0.81339751  -0.01638821  1
