# generated using pymatgen
data_HC3
_symmetry_space_group_name_H-M   'P 1'
_cell_length_a   10.00000000
_cell_length_b   21.36688000
_cell_length_c   14.89356908
_cell_angle_alpha   90.00000000
_cell_angle_beta   90.00000000
_cell_angle_gamma   90.00000000
_symmetry_Int_Tables_number   1
_chemical_formula_structural   HC3
_chemical_formula_sum   'H18 C54'
_cell_volume   3182.29103407
_cell_formula_units_Z   18
loop_
 _symmetry_equiv_pos_site_id
 _symmetry_equiv_pos_as_xyz
  1  'x, y, z'
loop_
 _atom_site_type_symbol
 _atom_site_label
 _atom_site_symmetry_multiplicity
 _atom_site_fract_x
 _atom_site_fract_y
 _atom_site_fract_z
 _atom_site_occupancy
  C  C0  1  0.50000066  0.76878969  0.53260503  1
  C  C1  1  0.50000190  0.76839077  0.69428071  1
  C  C2  1  0.50000065  0.77695753  0.85520880  1
  C  C3  1  0.50000064  0.21380209  0.56441508  1
  C  C4  1  0.49999851  0.23290897  0.71790636  1
  C  C5  1  0.49999785  0.23374648  0.88031829  1
  C  C6  1  0.49999950  0.26018500  0.63062535  1
  C  C7  1  0.49999820  0.26640201  0.79705896  1
  C  C8  1  0.49999820  0.26615673  0.95917239  1
  C  C9  1  0.49999918  0.33371193  0.12668750  1
  C  C10  1  0.49999887  0.33258991  0.29366800  1
  C  C11  1  0.49999873  0.33411755  0.45922712  1
  C  C12  1  0.49999914  0.32966365  0.62695144  1
  C  C13  1  0.49999871  0.33353327  0.79476946  1
  C  C14  1  0.49999894  0.33276449  0.96001356  1
  C  C15  1  0.49999944  0.36567516  0.04436105  1
  C  C16  1  0.49999919  0.36427776  0.21074433  1
  C  C17  1  0.49999898  0.36526290  0.37600553  1
  C  C18  1  0.49999891  0.36400616  0.54308239  1
  C  C19  1  0.49999906  0.36473685  0.70931707  1
  C  C20  1  0.49999923  0.36689159  0.87736772  1
  C  C21  1  0.50000012  0.43316657  0.04329167  1
  C  C22  1  0.49999975  0.43140758  0.21061141  1
  C  C23  1  0.49999947  0.43233321  0.37634849  1
  C  C24  1  0.49999900  0.43185028  0.54366126  1
  C  C25  1  0.49999932  0.43299245  0.71015857  1
  C  C26  1  0.49999993  0.43455510  0.87703284  1
  C  C27  1  0.50000040  0.46400847  0.12778669  1
  C  C28  1  0.50000005  0.46461670  0.29314423  1
  C  C29  1  0.49999940  0.46473991  0.45982386  1
  C  C30  1  0.49999918  0.46560472  0.62674107  1
  C  C31  1  0.49999988  0.46768094  0.79374507  1
  C  C32  1  0.50000041  0.46766294  0.96024818  1
  C  C33  1  0.50000118  0.53069981  0.12870475  1
  C  C34  1  0.50000094  0.53177083  0.29291114  1
  C  C35  1  0.49999994  0.53194491  0.45817907  1
  C  C36  1  0.49999978  0.53312933  0.62625943  1
  C  C37  1  0.50000038  0.53623208  0.79429645  1
  C  C38  1  0.50000072  0.53582007  0.96119311  1
  C  C39  1  0.50000093  0.56295804  0.04663994  1
  C  C40  1  0.50000186  0.56348643  0.21060407  1
  C  C41  1  0.50000076  0.56323797  0.37623920  1
  C  C42  1  0.50000011  0.56568140  0.54275709  1
  C  C43  1  0.50000039  0.56809150  0.70824174  1
  C  C44  1  0.50000070  0.57134210  0.87648796  1
  C  C45  1  0.50000086  0.63105131  0.54190878  1
  C  C46  1  0.50000108  0.63514412  0.70439253  1
  C  C47  1  0.50000098  0.64072125  0.87158486  1
  C  C48  1  0.50000133  0.66662108  0.61925564  1
  C  C49  1  0.50000122  0.67072806  0.78529751  1
  C  C50  1  0.50000098  0.68333553  0.94521385  1
  C  C51  1  0.50000149  0.73537155  0.61231793  1
  C  C52  1  0.50000138  0.73864490  0.77787990  1
  C  C53  1  0.50000046  0.74857703  0.93806742  1
  H  H54  1  0.50000078  0.82006222  0.53570389  1
  H  H55  1  0.50000191  0.81973106  0.69280471  1
  H  H56  1  0.50000020  0.82794635  0.84771694  1
  H  H57  1  0.50000037  0.16517261  0.58806422  1
  H  H58  1  0.49999819  0.18167372  0.72189610  1
  H  H59  1  0.49999797  0.18246397  0.87948217  1
  H  H60  1  0.49999912  0.74763671  0.46575000  1
  H  H61  1  0.50000200  0.21769162  0.49183003  1
  H  H62  1  0.49999893  0.28258797  0.12786891  1
  H  H63  1  0.49999866  0.28124765  0.29438634  1
  H  H64  1  0.49999834  0.28381916  0.45544975  1
  H  H65  1  0.50000041  0.61258313  0.05690759  1
  H  H66  1  0.50000277  0.61479915  0.20978528  1
  H  H67  1  0.50000125  0.61432554  0.37368333  1
  H  H68  1  0.50000068  0.65561988  0.47787102  1
  H  H69  1  0.49999812  0.24011391  0.02221348  1
  H  H70  1  0.50000174  0.66845345  0.01401095  1
  H  H71  1  0.49999971  0.77656695  -0.00023654  1
