# generated using pymatgen
data_H2C9
_symmetry_space_group_name_H-M   'P 1'
_cell_length_a   10.00000000
_cell_length_b   25.62946000
_cell_length_c   14.84587211
_cell_angle_alpha   90.00000000
_cell_angle_beta   90.00000000
_cell_angle_gamma   90.00000000
_symmetry_Int_Tables_number   1
_chemical_formula_structural   H2C9
_chemical_formula_sum   'H16 C72'
_cell_volume   3804.91685322
_cell_formula_units_Z   8
loop_
 _symmetry_equiv_pos_site_id
 _symmetry_equiv_pos_as_xyz
  1  'x, y, z'
loop_
 _atom_site_type_symbol
 _atom_site_label
 _atom_site_symmetry_multiplicity
 _atom_site_fract_x
 _atom_site_fract_y
 _atom_site_fract_z
 _atom_site_occupancy
  C  C0  1  0.50000017  0.21971233  0.56046413  1
  C  C1  1  0.50000018  0.23524094  0.71487135  1
  C  C2  1  0.50000066  0.23605767  0.87836936  1
  C  C3  1  0.50000037  0.25816081  0.62733255  1
  C  C4  1  0.50000071  0.26301336  0.79460217  1
  C  C5  1  0.50000031  0.26309231  0.95766786  1
  C  C6  1  0.49999910  0.32075664  0.12562474  1
  C  C7  1  0.49999874  0.32081206  0.29137703  1
  C  C8  1  0.49999997  0.32098460  0.45653099  1
  C  C9  1  0.50000066  0.31606067  0.62401856  1
  C  C10  1  0.50000080  0.31885908  0.79244019  1
  C  C11  1  0.50000008  0.31857874  0.95864033  1
  C  C12  1  0.49999976  0.34670761  0.04283350  1
  C  C13  1  0.49999915  0.34743951  0.20867938  1
  C  C14  1  0.49999959  0.34773066  0.37392096  1
  C  C15  1  0.50000046  0.34540141  0.54076034  1
  C  C16  1  0.50000087  0.34492614  0.70675596  1
  C  C17  1  0.50000041  0.34655585  0.87536745  1
  C  C18  1  0.50000011  0.40282393  0.04159852  1
  C  C19  1  0.49999997  0.40347083  0.20828488  1
  C  C20  1  0.50000015  0.40353298  0.37461571  1
  C  C21  1  0.50000047  0.40190389  0.54194718  1
  C  C22  1  0.50000064  0.40146561  0.70770435  1
  C  C23  1  0.50000014  0.40258211  0.87500598  1
  C  C24  1  0.50000020  0.43056651  0.12474008  1
  C  C25  1  0.50000026  0.43092643  0.29152817  1
  C  C26  1  0.50000034  0.43013422  0.45869608  1
  C  C27  1  0.50000036  0.42979520  0.62504436  1
  C  C28  1  0.50000032  0.42975138  0.79124137  1
  C  C29  1  0.50000013  0.43040611  0.95815104  1
  C  C30  1  0.50000006  0.48633652  0.12456155  1
  C  C31  1  0.50000014  0.48642565  0.29180926  1
  C  C32  1  0.50000011  0.48600560  0.45879535  1
  C  C33  1  0.50000003  0.48600894  0.62537500  1
  C  C34  1  0.50000008  0.48596954  0.79147806  1
  C  C35  1  0.50000005  0.48627794  0.95794338  1
  C  C36  1  0.49999988  0.51399408  0.04120492  1
  C  C37  1  0.49999985  0.51357396  0.20819107  1
  C  C38  1  0.49999993  0.51366320  0.37543807  1
  C  C39  1  0.49999994  0.51372175  0.54205637  1
  C  C40  1  0.49999991  0.51403041  0.70852187  1
  C  C41  1  0.49999997  0.51399097  0.87462498  1
  C  C42  1  0.49999966  0.56986571  0.04130347  1
  C  C43  1  0.49999973  0.56907347  0.20847188  1
  C  C44  1  0.49999979  0.56943338  0.37526030  1
  C  C45  1  0.49999987  0.56959365  0.54184917  1
  C  C46  1  0.49999967  0.57024861  0.70875850  1
  C  C47  1  0.49999963  0.57020474  0.87495559  1
  C  C48  1  0.49999984  0.59646646  0.12538465  1
  C  C49  1  0.50000002  0.59652885  0.29171501  1
  C  C50  1  0.49999988  0.59717565  0.45840133  1
  C  C51  1  0.49999985  0.59741786  0.62499413  1
  C  C52  1  0.49999935  0.59853440  0.79229562  1
  C  C53  1  0.49999953  0.59809592  0.95805285  1
  C  C54  1  0.50000040  0.65226925  0.12607846  1
  C  C55  1  0.50000084  0.65256063  0.29132057  1
  C  C56  1  0.50000024  0.65329215  0.45716712  1
  C  C57  1  0.49999959  0.65344422  0.62463222  1
  C  C58  1  0.49999913  0.65507401  0.79324402  1
  C  C59  1  0.49999953  0.65459857  0.95923950  1
  C  C60  1  0.50000002  0.67901492  0.04346906  1
  C  C61  1  0.50000125  0.67918767  0.20862274  1
  C  C62  1  0.50000090  0.67924294  0.37437535  1
  C  C63  1  0.49999992  0.68142124  0.54135949  1
  C  C64  1  0.49999921  0.68114125  0.70756003  1
  C  C65  1  0.49999935  0.68393956  0.87598099  1
  C  C66  1  0.49999968  0.73690755  0.54233144  1
  C  C67  1  0.49999930  0.73698701  0.70539767  1
  C  C68  1  0.49999965  0.74183958  0.87266744  1
  C  C69  1  0.49999934  0.76394270  0.62163096  1
  C  C70  1  0.49999984  0.76475971  0.78512852  1
  C  C71  1  0.49999987  0.78028805  0.93953587  1
  H  H72  1  0.50000005  0.17916461  0.58412139  1
  H  H73  1  0.49999945  0.19252859  0.71925300  1
  H  H74  1  0.50000133  0.19329670  0.87789197  1
  H  H75  1  0.49999867  0.80670337  0.62210725  1
  H  H76  1  0.50000057  0.80747210  0.78074713  1
  H  H77  1  0.49999999  0.82083578  0.91587873  1
  H  H78  1  0.50000020  0.22316244  0.48763688  1
  H  H79  1  0.49999885  0.27815375  0.12825835  1
  H  H80  1  0.49999821  0.27801567  0.29158653  1
  H  H81  1  0.49999995  0.27905853  0.45161771  1
  H  H82  1  0.50000002  0.72094139  0.04838182  1
  H  H83  1  0.50000178  0.72198426  0.20841178  1
  H  H84  1  0.50000115  0.72184584  0.37174496  1
  H  H85  1  0.49999959  0.75872815  0.47918068  1
  H  H86  1  0.50000040  0.24127281  0.02082023  1
  H  H87  1  0.49999986  0.77683814  0.01236315  1
