# generated using pymatgen
data_HC6
_symmetry_space_group_name_H-M   'P 1'
_cell_length_a   10.00000000
_cell_length_b   29.89204000
_cell_length_c   14.82900646
_cell_angle_alpha   90.00000000
_cell_angle_beta   90.00000000
_cell_angle_gamma   90.00000000
_symmetry_Int_Tables_number   1
_chemical_formula_structural   HC6
_chemical_formula_sum   'H16 C96'
_cell_volume   4432.69254400
_cell_formula_units_Z   16
loop_
 _symmetry_equiv_pos_site_id
 _symmetry_equiv_pos_as_xyz
  1  'x, y, z'
loop_
 _atom_site_type_symbol
 _atom_site_label
 _atom_site_symmetry_multiplicity
 _atom_site_fract_x
 _atom_site_fract_y
 _atom_site_fract_z
 _atom_site_occupancy
  C  C0  1  0.50000000  0.20117152  0.03963382  1
  C  C1  1  0.50000001  0.20118091  0.20636734  1
  C  C2  1  0.50000000  0.20120892  0.37312685  1
  C  C3  1  0.50000001  0.20122952  0.53978487  1
  C  C4  1  0.50000000  0.20122199  0.70632907  1
  C  C5  1  0.49999999  0.20118591  0.87291076  1
  C  C6  1  0.50000000  0.22397674  0.12298776  1
  C  C7  1  0.50000001  0.22398551  0.28974557  1
  C  C8  1  0.50000001  0.22403549  0.45647410  1
  C  C9  1  0.50000001  0.22406736  0.62307990  1
  C  C10  1  0.49999999  0.22402961  0.78962993  1
  C  C11  1  0.50000000  0.22396024  0.95626029  1
  C  C12  1  0.50000000  0.27237890  0.12295707  1
  C  C13  1  0.50000001  0.27238252  0.28976092  1
  C  C14  1  0.50000002  0.27244076  0.45651091  1
  C  C15  1  0.50000001  0.27249007  0.62312190  1
  C  C16  1  0.50000000  0.27244920  0.78964924  1
  C  C17  1  0.50000000  0.27236524  0.95622755  1
  C  C18  1  0.49999999  0.29604991  0.03954709  1
  C  C19  1  0.50000000  0.29603856  0.20636149  1
  C  C20  1  0.50000002  0.29608379  0.37314039  1
  C  C21  1  0.50000002  0.29618016  0.53982449  1
  C  C22  1  0.50000000  0.29621192  0.70640863  1
  C  C23  1  0.50000000  0.29612577  0.87294802  1
  C  C24  1  0.49999999  0.34399255  0.03945385  1
  C  C25  1  0.49999999  0.34395068  0.20634103  1
  C  C26  1  0.50000002  0.34402166  0.37319130  1
  C  C27  1  0.50000002  0.34415093  0.53988333  1
  C  C28  1  0.50000000  0.34421729  0.70640294  1
  C  C29  1  0.49999999  0.34412301  0.87286017  1
  C  C30  1  0.49999999  0.36763334  0.12285017  1
  C  C31  1  0.50000000  0.36767927  0.28976889  1
  C  C32  1  0.50000002  0.36785063  0.45655549  1
  C  C33  1  0.50000001  0.36803268  0.62313525  1
  C  C34  1  0.49999999  0.36805461  0.78962650  1
  C  C35  1  0.49999999  0.36787978  0.95611726  1
  C  C36  1  0.50000000  0.41542503  0.12267474  1
  C  C37  1  0.50000000  0.41546877  0.28979448  1
  C  C38  1  0.50000001  0.41571008  0.45670072  1
  C  C39  1  0.50000001  0.41597934  0.62315453  1
  C  C40  1  0.49999999  0.41604043  0.78942153  1
  C  C41  1  0.49999999  0.41579010  0.95583273  1
  C  C42  1  0.49999999  0.43934684  0.03931340  1
  C  C43  1  0.50000000  0.43899766  0.20612986  1
  C  C44  1  0.50000000  0.43926171  0.37327277  1
  C  C45  1  0.50000000  0.43977683  0.53997509  1
  C  C46  1  0.50000000  0.44003982  0.70623088  1
  C  C47  1  0.49999999  0.43991465  0.87256488  1
  C  C48  1  0.49999999  0.48715184  0.03918829  1
  C  C49  1  0.50000000  0.48665009  0.20600582  1
  C  C50  1  0.50000000  0.48702399  0.37340078  1
  C  C51  1  0.50000000  0.48773418  0.54016163  1
  C  C52  1  0.50000000  0.48809901  0.70614318  1
  C  C53  1  0.49999999  0.48790160  0.87234489  1
  C  C54  1  0.50000000  0.51050430  0.12275722  1
  C  C55  1  0.50000000  0.51012928  0.28948172  1
  C  C56  1  0.50000001  0.51115867  0.45675085  1
  C  C57  1  0.50000001  0.51206566  0.62300622  1
  C  C58  1  0.50000000  0.51215290  0.78916412  1
  C  C59  1  0.49999999  0.51136633  0.95597560  1
  C  C60  1  0.49999999  0.55825341  0.12296365  1
  C  C61  1  0.49999999  0.55762421  0.28929831  1
  C  C62  1  0.50000001  0.55905275  0.45680378  1
  C  C63  1  0.50000000  0.56025961  0.62292691  1
  C  C64  1  0.50000001  0.56036921  0.78884753  1
  C  C65  1  0.50000001  0.55922884  0.95602791  1
  C  C66  1  0.49999999  0.58234845  0.04002165  1
  C  C67  1  0.49999998  0.58141389  0.20639617  1
  C  C68  1  0.50000000  0.58116455  0.37223309  1
  C  C69  1  0.49999999  0.58392627  0.53980896  1
  C  C70  1  0.49999999  0.58491104  0.70564935  1
  C  C71  1  0.50000001  0.58348046  0.87275448  1
  C  C72  1  0.49999999  0.63022790  0.04175083  1
  C  C73  1  0.49999999  0.62938370  0.20691427  1
  C  C74  1  0.49999999  0.62870845  0.37124610  1
  C  C75  1  0.49999997  0.63256114  0.53867039  1
  C  C76  1  0.49999997  0.63361301  0.70499120  1
  C  C77  1  0.50000001  0.63147054  0.87322511  1
  C  C78  1  0.49999998  0.65237714  0.12412896  1
  C  C79  1  0.49999999  0.65218469  0.28933566  1
  C  C80  1  0.49999998  0.65193934  0.45315017  1
  C  C81  1  0.49999994  0.65854871  0.62250999  1
  C  C82  1  0.50000000  0.65646781  0.79102633  1
  C  C83  1  0.50000004  0.65457370  0.95717849  1
  C  C84  1  0.49999993  0.70813029  0.62677571  1
  C  C85  1  0.50000003  0.70435403  0.79472108  1
  C  C86  1  0.50000004  0.70120896  0.95802983  1
  C  C87  1  0.49999993  0.73857899  0.55275221  1
  C  C88  1  0.49999999  0.72972630  0.71338356  1
  C  C89  1  0.50000003  0.72669783  0.88035777  1
  C  C90  1  0.50000003  0.78519866  0.56018584  1
  C  C91  1  0.49999997  0.77826281  0.72109162  1
  C  C92  1  0.49999996  0.77578066  0.88756468  1
  C  C93  1  0.49999999  0.80560560  0.64335191  1
  C  C94  1  0.49999991  0.79940552  0.80529864  1
  C  C95  1  0.50000013  0.79928329  0.96812828  1
  H  H96  1  0.49999999  0.16446486  0.03960857  1
  H  H97  1  0.50000000  0.16447130  0.20641244  1
  H  H98  1  0.49999999  0.16450151  0.37314934  1
  H  H99  1  0.50000001  0.16451823  0.53970131  1
  H  H100  1  0.50000000  0.16451410  0.70615826  1
  H  H101  1  0.49999999  0.16448586  0.87278126  1
  H  H102  1  0.49999982  0.84206912  0.65077155  1
  H  H103  1  0.49999989  0.83609223  0.80706598  1
  H  H104  1  0.50000022  0.83595922  0.96669136  1
  H  H105  1  0.49999996  0.68886209  0.12744783  1
  H  H106  1  0.49999998  0.68888135  0.29018171  1
  H  H107  1  0.50000003  0.68739184  0.44338640  1
  H  H108  1  0.49999987  0.72807456  0.48350983  1
  H  H109  1  0.49999998  0.80515043  0.49815164  1
  H  H110  1  0.50000001  0.71874016  0.02234392  1
  H  H111  1  0.50000043  0.78358946  0.03471811  1
