# generated using pymatgen
data_H7C33
_symmetry_space_group_name_H-M   'P 1'
_cell_length_a   10.00000000
_cell_length_b   21.36688000
_cell_length_c   14.81842900
_cell_angle_alpha   90.00000000
_cell_angle_beta   90.00000000
_cell_angle_gamma   90.00000000
_symmetry_Int_Tables_number   1
_chemical_formula_structural   H7C33
_chemical_formula_sum   'H14 C66'
_cell_volume   3166.23594169
_cell_formula_units_Z   2
loop_
 _symmetry_equiv_pos_site_id
 _symmetry_equiv_pos_as_xyz
  1  'x, y, z'
loop_
 _atom_site_type_symbol
 _atom_site_label
 _atom_site_symmetry_multiplicity
 _atom_site_fract_x
 _atom_site_fract_y
 _atom_site_fract_z
 _atom_site_occupancy
  C  C0  1  0.50000014  0.78525400  0.55743985  1
  C  C1  1  0.49999945  0.76714187  0.71240457  1
  C  C2  1  0.49999902  0.76643519  0.87659279  1
  C  C3  1  0.50000026  0.23242970  0.04053167  1
  C  C4  1  0.49999996  0.23190736  0.20749578  1
  C  C5  1  0.49999948  0.23187372  0.37473455  1
  C  C6  1  0.49999901  0.23230203  0.54162705  1
  C  C7  1  0.49999988  0.23279354  0.70804052  1
  C  C8  1  0.50000076  0.23289053  0.87416062  1
  C  C9  1  0.49999992  0.26393575  0.12414002  1
  C  C10  1  0.49999973  0.26361857  0.29110589  1
  C  C11  1  0.49999913  0.26396939  0.45807045  1
  C  C12  1  0.49999902  0.26454705  0.62467232  1
  C  C13  1  0.50000061  0.26493006  0.79104270  1
  C  C14  1  0.50000071  0.26466822  0.95740776  1
  C  C15  1  0.49999997  0.33160609  0.12403868  1
  C  C16  1  0.49999982  0.33135510  0.29099204  1
  C  C17  1  0.49999955  0.33170316  0.45789854  1
  C  C18  1  0.49999941  0.33230922  0.62446696  1
  C  C19  1  0.50000058  0.33264557  0.79086032  1
  C  C20  1  0.50000066  0.33230497  0.95727535  1
  C  C21  1  0.50000033  0.36497517  0.04072954  1
  C  C22  1  0.49999996  0.36439765  0.20746442  1
  C  C23  1  0.49999996  0.36452736  0.37437343  1
  C  C24  1  0.49999987  0.36519441  0.54104870  1
  C  C25  1  0.50000017  0.36575805  0.70753142  1
  C  C26  1  0.50000067  0.36576673  0.87402695  1
  C  C27  1  0.50000041  0.43204427  0.04049163  1
  C  C28  1  0.50000017  0.43142290  0.20720582  1
  C  C29  1  0.50000034  0.43164187  0.37432219  1
  C  C30  1  0.50000067  0.43244153  0.54104059  1
  C  C31  1  0.50000064  0.43303733  0.70732171  1
  C  C32  1  0.50000051  0.43304575  0.87368889  1
  C  C33  1  0.50000035  0.46482687  0.12389490  1
  C  C34  1  0.50000023  0.46430121  0.29062688  1
  C  C35  1  0.50000066  0.46527541  0.45757029  1
  C  C36  1  0.50000097  0.46628286  0.62401160  1
  C  C37  1  0.50000055  0.46662920  0.79037688  1
  C  C38  1  0.50000042  0.46582325  0.95728140  1
  C  C39  1  0.50000013  0.53191382  0.12375390  1
  C  C40  1  0.50000001  0.53107593  0.29031793  1
  C  C41  1  0.50000049  0.53236460  0.45733796  1
  C  C42  1  0.50000089  0.53366747  0.62370035  1
  C  C43  1  0.50000031  0.53405716  0.79011485  1
  C  C44  1  0.50000012  0.53293539  0.95724012  1
  C  C45  1  0.49999996  0.56579345  0.04076535  1
  C  C46  1  0.49999995  0.56429762  0.20728481  1
  C  C47  1  0.50000009  0.56416506  0.37327123  1
  C  C48  1  0.50000054  0.56662119  0.54038035  1
  C  C49  1  0.50000034  0.56775884  0.70639042  1
  C  C50  1  0.49999986  0.56656359  0.87400076  1
  C  C51  1  0.49999956  0.63329183  0.04186154  1
  C  C52  1  0.49999994  0.63156493  0.20765750  1
  C  C53  1  0.50000014  0.63114914  0.37254814  1
  C  C54  1  0.50000023  0.63440320  0.53927758  1
  C  C55  1  0.49999973  0.63556637  0.70531637  1
  C  C56  1  0.49999917  0.63385240  0.87416124  1
  C  C57  1  0.49999969  0.66403274  0.12491870  1
  C  C58  1  0.50000021  0.66359571  0.29018995  1
  C  C59  1  0.50000023  0.66347024  0.45492409  1
  C  C60  1  0.50000004  0.66992598  0.62231563  1
  C  C61  1  0.49999894  0.66701956  0.79096021  1
  C  C62  1  0.49999910  0.66739730  0.95758535  1
  C  C63  1  0.49999998  0.73939754  0.62487631  1
  C  C64  1  0.49999880  0.73406010  0.79260395  1
  C  C65  1  0.49999913  0.73408059  0.95632153  1
  H  H66  1  0.49999997  0.83408008  0.58045478  1
  H  H67  1  0.49999959  0.81840619  0.71566206  1
  H  H68  1  0.49999930  0.81774932  0.87576745  1
  H  H69  1  0.50000021  0.18109604  0.03989191  1
  H  H70  1  0.50000026  0.18056046  0.20727870  1
  H  H71  1  0.49999957  0.18051678  0.37517712  1
  H  H72  1  0.49999938  0.18095338  0.54242151  1
  H  H73  1  0.50000009  0.18146370  0.70861606  1
  H  H74  1  0.50000058  0.18158302  0.87405820  1
  H  H75  1  0.50000006  0.78063940  0.48451486  1
  H  H76  1  0.49999931  0.71511951  0.12844951  1
  H  H77  1  0.50000030  0.71494664  0.29019985  1
  H  H78  1  0.50000017  0.71371044  0.44987646  1
  H  H79  1  0.49999969  0.76042464  0.01954969  1
