# generated using pymatgen
data_H3C11
_symmetry_space_group_name_H-M   'P 1'
_cell_length_a   10.00000000
_cell_length_b   25.62946000
_cell_length_c   14.83967725
_cell_angle_alpha   90.00000000
_cell_angle_beta   90.00000000
_cell_angle_gamma   90.00000000
_symmetry_Int_Tables_number   1
_chemical_formula_structural   H3C11
_chemical_formula_sum   'H18 C66'
_cell_volume   3803.32914554
_cell_formula_units_Z   6
loop_
 _symmetry_equiv_pos_site_id
 _symmetry_equiv_pos_as_xyz
  1  'x, y, z'
loop_
 _atom_site_type_symbol
 _atom_site_label
 _atom_site_symmetry_multiplicity
 _atom_site_fract_x
 _atom_site_fract_y
 _atom_site_fract_z
 _atom_site_occupancy
  C  C0  1  0.49999608  0.23392295  0.04622275  1
  C  C1  1  0.49999714  0.23318309  0.21365207  1
  C  C2  1  0.49999794  0.23330330  0.38141229  1
  C  C3  1  0.49999914  0.23438509  0.54839191  1
  C  C4  1  0.49999808  0.23519996  0.71433753  1
  C  C5  1  0.49999563  0.23489265  0.87997862  1
  C  C6  1  0.49999757  0.25993422  0.13007743  1
  C  C7  1  0.49999800  0.25939824  0.29753976  1
  C  C8  1  0.49999909  0.26032999  0.46462673  1
  C  C9  1  0.49999947  0.26161285  0.63114768  1
  C  C10  1  0.49999771  0.26192921  0.79727148  1
  C  C11  1  0.49999690  0.26110415  0.96334781  1
  C  C12  1  0.49999960  0.31643191  0.13002507  1
  C  C13  1  0.49999932  0.31578893  0.29762311  1
  C  C14  1  0.49999998  0.31679717  0.46460463  1
  C  C15  1  0.50000066  0.31814459  0.63127140  1
  C  C16  1  0.50000003  0.31849292  0.79739768  1
  C  C17  1  0.49999975  0.31765117  0.96326269  1
  C  C18  1  0.50000088  0.34460506  0.04674071  1
  C  C19  1  0.50000038  0.34307073  0.21409604  1
  C  C20  1  0.50000015  0.34360667  0.38084303  1
  C  C21  1  0.50000094  0.34510277  0.54761039  1
  C  C22  1  0.50000124  0.34623859  0.71440880  1
  C  C23  1  0.50000106  0.34609622  0.88056893  1
  C  C24  1  0.50000262  0.40070878  0.04672298  1
  C  C25  1  0.50000191  0.39873479  0.21429561  1
  C  C26  1  0.50000112  0.39953583  0.38067258  1
  C  C27  1  0.50000146  0.40112391  0.54752343  1
  C  C28  1  0.50000217  0.40260436  0.71474113  1
  C  C29  1  0.50000275  0.40254830  0.88064735  1
  C  C30  1  0.50000284  0.42625058  0.13144499  1
  C  C31  1  0.50000188  0.42642190  0.29714489  1
  C  C32  1  0.50000127  0.42783175  0.46338556  1
  C  C33  1  0.50000188  0.42938198  0.63081483  1
  C  C34  1  0.50000257  0.43114089  0.79794478  1
  C  C35  1  0.50000320  0.42992364  0.96396886  1
  C  C36  1  0.50000158  0.48178117  0.13249352  1
  C  C37  1  0.50000242  0.48243811  0.29673521  1
  C  C38  1  0.50000121  0.48376512  0.46169510  1
  C  C39  1  0.50000103  0.48540394  0.63044787  1
  C  C40  1  0.50000217  0.48800641  0.79854671  1
  C  C41  1  0.50000178  0.48680818  0.96512787  1
  C  C42  1  0.49999855  0.50907429  0.05078096  1
  C  C43  1  0.50000192  0.50900260  0.21448217  1
  C  C44  1  0.50000217  0.50944672  0.37942167  1
  C  C45  1  0.50000005  0.51214784  0.54647719  1
  C  C46  1  0.50000098  0.51471051  0.71263984  1
  C  C47  1  0.50000212  0.51704100  0.88080233  1
  C  C48  1  0.49999840  0.56638857  0.54573158  1
  C  C49  1  0.49999941  0.57057293  0.70893319  1
  C  C50  1  0.50000242  0.57468457  0.87597491  1
  C  C51  1  0.49999819  0.59635226  0.62349491  1
  C  C52  1  0.49999982  0.60076295  0.79008351  1
  C  C53  1  0.50000597  0.60962804  0.95058582  1
  C  C54  1  0.49999795  0.65302188  0.61648055  1
  C  C55  1  0.49999907  0.65734607  0.78329801  1
  C  C56  1  0.50000282  0.66328058  0.94434384  1
  C  C57  1  0.49999766  0.67917788  0.53273548  1
  C  C58  1  0.49999879  0.68261626  0.69672373  1
  C  C59  1  0.49999936  0.68918563  0.86164327  1
  C  C60  1  0.49999905  0.73369419  0.52729018  1
  C  C61  1  0.49999948  0.73888012  0.69108939  1
  C  C62  1  0.49999908  0.74650646  0.85680221  1
  C  C63  1  0.50000011  0.76339348  0.60530346  1
  C  C64  1  0.49999939  0.76905993  0.76971840  1
  C  C65  1  0.49999956  0.77898911  0.93153901  1
  H  H66  1  0.49999489  0.19111350  0.04499520  1
  H  H67  1  0.49999626  0.19035502  0.21305041  1
  H  H68  1  0.49999720  0.19050183  0.38241398  1
  H  H69  1  0.49999866  0.19157162  0.54959979  1
  H  H70  1  0.49999731  0.19241488  0.71468355  1
  H  H71  1  0.49999318  0.19211346  0.87928243  1
  H  H72  1  0.50000113  0.80610204  0.60261729  1
  H  H73  1  0.49999969  0.81171305  0.76360967  1
  H  H74  1  0.49999995  0.82137738  0.92145428  1
  H  H75  1  0.49999063  0.55036180  0.06145351  1
  H  H76  1  0.50000186  0.55178885  0.21397509  1
  H  H77  1  0.50000256  0.55201165  0.37555247  1
  H  H78  1  0.49999738  0.58640611  0.48120873  1
  H  H79  1  0.49999685  0.65704117  0.46987382  1
  H  H80  1  0.49999958  0.75272336  0.46115552  1
  H  H81  1  0.50001420  0.59705696  0.01953274  1
  H  H82  1  0.50000412  0.68552021  0.00726912  1
  H  H83  1  0.49999960  0.76502315  0.00108496  1
