# generated using pymatgen
data_H11C45
_symmetry_space_group_name_H-M   'P 1'
_cell_length_a   10.00000000
_cell_length_b   29.89204000
_cell_length_c   14.83206720
_cell_angle_alpha   90.00000000
_cell_angle_beta   90.00000000
_cell_angle_gamma   90.00000000
_symmetry_Int_Tables_number   1
_chemical_formula_structural   H11C45
_chemical_formula_sum   'H22 C90'
_cell_volume   4433.60746163
_cell_formula_units_Z   2
loop_
 _symmetry_equiv_pos_site_id
 _symmetry_equiv_pos_as_xyz
  1  'x, y, z'
loop_
 _atom_site_type_symbol
 _atom_site_label
 _atom_site_symmetry_multiplicity
 _atom_site_fract_x
 _atom_site_fract_y
 _atom_site_fract_z
 _atom_site_occupancy
  C  C0  1  0.49999455  0.84709745  0.58158371  1
  C  C1  1  0.50000023  0.83855906  0.74387961  1
  C  C2  1  0.50000450  0.83374633  0.90931920  1
  C  C3  1  0.50000008  0.16418262  0.03030964  1
  C  C4  1  0.50000014  0.16390031  0.19757390  1
  C  C5  1  0.50000006  0.16404250  0.36484893  1
  C  C6  1  0.49999984  0.16444929  0.53154293  1
  C  C7  1  0.49999981  0.16474527  0.69776251  1
  C  C8  1  0.49999995  0.16464532  0.86391017  1
  C  C9  1  0.50000012  0.18667172  0.11401764  1
  C  C10  1  0.50000012  0.18662878  0.28120058  1
  C  C11  1  0.49999998  0.18705890  0.44810981  1
  C  C12  1  0.49999983  0.18749173  0.61457073  1
  C  C13  1  0.49999988  0.18760440  0.78087287  1
  C  C14  1  0.50000002  0.18731245  0.94723410  1
  C  C15  1  0.50000005  0.23502575  0.11404347  1
  C  C16  1  0.50000001  0.23499439  0.28132506  1
  C  C17  1  0.49999992  0.23541884  0.44823973  1
  C  C18  1  0.49999983  0.23589122  0.61463509  1
  C  C19  1  0.49999992  0.23604014  0.78087146  1
  C  C20  1  0.49999999  0.23567870  0.94722609  1
  C  C21  1  0.49999997  0.25892527  0.03080257  1
  C  C22  1  0.49999993  0.25838415  0.19763810  1
  C  C23  1  0.49999982  0.25875120  0.36479568  1
  C  C24  1  0.49999975  0.25939330  0.53143982  1
  C  C25  1  0.49999987  0.25977976  0.69770995  1
  C  C26  1  0.49999994  0.25966471  0.86408048  1
  C  C27  1  0.49999985  0.30685902  0.03073715  1
  C  C28  1  0.49999947  0.30620017  0.19760813  1
  C  C29  1  0.49999932  0.30667683  0.36508232  1
  C  C30  1  0.49999935  0.30746465  0.53175099  1
  C  C31  1  0.49999972  0.30792145  0.69770997  1
  C  C32  1  0.49999999  0.30776708  0.86387883  1
  C  C33  1  0.49999954  0.33005129  0.11441034  1
  C  C34  1  0.49999888  0.32964952  0.28111656  1
  C  C35  1  0.49999911  0.33080586  0.44844954  1
  C  C36  1  0.49999915  0.33179721  0.61459976  1
  C  C37  1  0.49999996  0.33188139  0.78073308  1
  C  C38  1  0.50000001  0.33106985  0.94758522  1
  C  C39  1  0.49999945  0.37784258  0.11467794  1
  C  C40  1  0.49999839  0.37720550  0.28104326  1
  C  C41  1  0.49999869  0.37877367  0.44864717  1
  C  C42  1  0.49999877  0.38010169  0.61468060  1
  C  C43  1  0.50000022  0.38010016  0.78057403  1
  C  C44  1  0.50000010  0.37897274  0.94773270  1
  C  C45  1  0.49999982  0.40198054  0.03182772  1
  C  C46  1  0.49999916  0.40097429  0.19815998  1
  C  C47  1  0.49999858  0.40073744  0.36396337  1
  C  C48  1  0.49999851  0.40374148  0.53154977  1
  C  C49  1  0.50000001  0.40463151  0.69747102  1
  C  C50  1  0.50000027  0.40321920  0.86438492  1
  C  C51  1  0.49999982  0.44987803  0.03351867  1
  C  C52  1  0.49999992  0.44895549  0.19860627  1
  C  C53  1  0.50000341  0.44826598  0.36291320  1
  C  C54  1  0.50000235  0.45247432  0.53041620  1
  C  C55  1  0.50000014  0.45333471  0.69699639  1
  C  C56  1  0.50000036  0.45116787  0.86473980  1
  C  C57  1  0.49999964  0.47200035  0.11580303  1
  C  C58  1  0.50000280  0.47171353  0.28098411  1
  C  C59  1  0.50001122  0.47161788  0.44471234  1
  C  C60  1  0.49999982  0.47839218  0.61483321  1
  C  C61  1  0.50000050  0.47631344  0.78268330  1
  C  C62  1  0.50000044  0.47415554  0.94871913  1
  C  C63  1  0.49999657  0.52774653  0.61981114  1
  C  C64  1  0.50000183  0.52417770  0.78648314  1
  C  C65  1  0.50000117  0.52060811  0.94957402  1
  C  C66  1  0.49998715  0.55773603  0.54510305  1
  C  C67  1  0.50000103  0.55020496  0.70571083  1
  C  C68  1  0.50000217  0.54635227  0.87174935  1
  C  C69  1  0.49999327  0.60363636  0.55152231  1
  C  C70  1  0.50000141  0.59867397  0.71277841  1
  C  C71  1  0.50000271  0.59478584  0.87872757  1
  C  C72  1  0.50000007  0.62590029  0.63457402  1
  C  C73  1  0.50000244  0.62082131  0.79915869  1
  C  C74  1  0.50000355  0.61689869  0.96287321  1
  C  C75  1  0.49999892  0.67443311  0.63959552  1
  C  C76  1  0.50000293  0.66890712  0.80532888  1
  C  C77  1  0.50000436  0.66295360  0.96880746  1
  C  C78  1  0.49999344  0.70153119  0.56155265  1
  C  C79  1  0.50000118  0.69581755  0.72494160  1
  C  C80  1  0.50000419  0.69015328  0.89124593  1
  C  C81  1  0.49999285  0.74778186  0.56711972  1
  C  C82  1  0.50000051  0.74374035  0.73075980  1
  C  C83  1  0.50000480  0.73884181  0.89797815  1
  C  C84  1  0.49999718  0.77008783  0.65066440  1
  C  C85  1  0.50000274  0.76482455  0.81776823  1
  C  C86  1  0.50000692  0.76120282  0.98188266  1
  C  C87  1  0.49999730  0.81927179  0.65633757  1
  C  C88  1  0.50000255  0.81298332  0.82326509  1
  C  C89  1  0.50000667  0.80800075  0.98718999  1
  H  H90  1  0.49999429  0.88343879  0.59135559  1
  H  H91  1  0.50000040  0.87516537  0.74970293  1
  H  H92  1  0.50000408  0.87037844  0.91283419  1
  H  H93  1  0.50000006  0.12748501  0.02936915  1
  H  H94  1  0.50000012  0.12720158  0.19747685  1
  H  H95  1  0.50000003  0.12734387  0.36547187  1
  H  H96  1  0.49999976  0.12776200  0.53216117  1
  H  H97  1  0.49999977  0.12806128  0.69771376  1
  H  H98  1  0.49999995  0.12796278  0.86354034  1
  H  H99  1  0.49999263  0.83489265  0.51211111  1
  H  H100  1  0.49999988  0.50849677  0.11942622  1
  H  H101  1  0.50000351  0.50841015  0.28180687  1
  H  H102  1  0.50003080  0.50699924  0.43408295  1
  H  H103  1  0.49996757  0.54692523  0.47611405  1
  H  H104  1  0.49998934  0.62250011  0.48842498  1
  H  H105  1  0.49998891  0.68623482  0.49463261  1
  H  H106  1  0.49998854  0.76717934  0.50455897  1
  H  H107  1  0.50000093  0.53763181  0.01418387  1
  H  H108  1  0.50000382  0.59794128  0.02583431  1
  H  H109  1  0.50000477  0.67827993  0.03567413  1
  H  H110  1  0.50000825  0.74211472  0.04474402  1
  H  H111  1  0.50000780  0.82427091  0.05343282  1
