# generated using pymatgen
data_H3C7
_symmetry_space_group_name_H-M   'P 1'
_cell_length_a   10.00000000
_cell_length_b   21.36688000
_cell_length_c   14.83640019
_cell_angle_alpha   90.00000000
_cell_angle_beta   90.00000000
_cell_angle_gamma   90.00000000
_symmetry_Int_Tables_number   1
_chemical_formula_structural   H3C7
_chemical_formula_sum   'H18 C42'
_cell_volume   3170.07582415
_cell_formula_units_Z   6
loop_
 _symmetry_equiv_pos_site_id
 _symmetry_equiv_pos_as_xyz
  1  'x, y, z'
loop_
 _atom_site_type_symbol
 _atom_site_label
 _atom_site_symmetry_multiplicity
 _atom_site_fract_x
 _atom_site_fract_y
 _atom_site_fract_z
 _atom_site_occupancy
  C  C0  1  0.49999985  0.27868395  0.04677492  1
  C  C1  1  0.49999899  0.27169386  0.21660018  1
  C  C2  1  0.49999837  0.27338923  0.38642151  1
  C  C3  1  0.49999808  0.27869115  0.55412105  1
  C  C4  1  0.49999815  0.28405234  0.71999959  1
  C  C5  1  0.49999906  0.28481581  0.88305258  1
  C  C6  1  0.50000005  0.30501938  0.13389959  1
  C  C7  1  0.49999937  0.30306007  0.30084940  1
  C  C8  1  0.49999864  0.30750476  0.46829691  1
  C  C9  1  0.49999841  0.31319549  0.63537909  1
  C  C10  1  0.49999884  0.31787849  0.80165014  1
  C  C11  1  0.49999988  0.31514162  0.96686364  1
  C  C12  1  0.50000123  0.37262305  0.13610542  1
  C  C13  1  0.50000095  0.37121735  0.30044134  1
  C  C14  1  0.49999967  0.37559159  0.46550371  1
  C  C15  1  0.49999912  0.38111373  0.63379339  1
  C  C16  1  0.49999956  0.38625667  0.80201227  1
  C  C17  1  0.50000041  0.38389949  0.96916026  1
  C  C18  1  0.50000124  0.40815788  0.05609204  1
  C  C19  1  0.50000203  0.40374847  0.21897374  1
  C  C20  1  0.50000097  0.40462760  0.38247295  1
  C  C21  1  0.49999963  0.41162408  0.54912462  1
  C  C22  1  0.49999971  0.41696817  0.71527442  1
  C  C23  1  0.50000018  0.42037038  0.88427919  1
  C  C24  1  0.50000020  0.47708441  0.54720274  1
  C  C25  1  0.50000038  0.48383899  0.71065740  1
  C  C26  1  0.50000067  0.48934201  0.87819722  1
  C  C27  1  0.50000035  0.51388972  0.62442283  1
  C  C28  1  0.50000092  0.52011300  0.79179391  1
  C  C29  1  0.50000086  0.53069486  0.95307952  1
  C  C30  1  0.50000041  0.58203706  0.61721281  1
  C  C31  1  0.50000129  0.58782203  0.78462202  1
  C  C32  1  0.50000127  0.59504415  0.94636584  1
  C  C33  1  0.49999916  0.61346392  0.53348390  1
  C  C34  1  0.50000125  0.61771160  0.69762616  1
  C  C35  1  0.50000139  0.62583410  0.86320419  1
  C  C36  1  0.49999928  0.67894598  0.52820254  1
  C  C37  1  0.50000113  0.68520384  0.69217058  1
  C  C38  1  0.50000123  0.69457978  0.85827590  1
  C  C39  1  0.50000032  0.71462083  0.60626433  1
  C  C40  1  0.50000128  0.72143761  0.77099759  1
  C  C41  1  0.50000077  0.73284170  0.93377847  1
  H  H42  1  0.49999963  0.22761499  0.03915268  1
  H  H43  1  0.49999759  0.22033086  0.21495309  1
  H  H44  1  0.49999757  0.22204421  0.38951538  1
  H  H45  1  0.49999748  0.22739113  0.55838345  1
  H  H46  1  0.49999770  0.23274956  0.72358642  1
  H  H47  1  0.49999835  0.23350195  0.88082407  1
  H  H48  1  0.49999989  0.76592999  0.60318619  1
  H  H49  1  0.50000127  0.77259377  0.76491624  1
  H  H50  1  0.50000018  0.78384580  0.92583089  1
  H  H51  1  0.50000177  0.45762747  0.06976461  1
  H  H52  1  0.50000314  0.45512584  0.21979111  1
  H  H53  1  0.50000185  0.45564360  0.37692588  1
  H  H54  1  0.50000063  0.50035802  0.48207515  1
  H  H55  1  0.49999761  0.58704889  0.47035990  1
  H  H56  1  0.49999823  0.70167778  0.46193433  1
  H  H57  1  0.50000064  0.51437103  0.02166608  1
  H  H58  1  0.50000128  0.62194471  0.00908385  1
  H  H59  1  0.50000062  0.71495467  0.00281099  1
