# generated using pymatgen
data_HC5
_symmetry_space_group_name_H-M   'P 1'
_cell_length_a   10.00000000
_cell_length_b   29.89204000
_cell_length_c   14.84657724
_cell_angle_alpha   90.00000000
_cell_angle_beta   90.00000000
_cell_angle_gamma   90.00000000
_symmetry_Int_Tables_number   1
_chemical_formula_structural   HC5
_chemical_formula_sum   'H18 C90'
_cell_volume   4437.94480684
_cell_formula_units_Z   18
loop_
 _symmetry_equiv_pos_site_id
 _symmetry_equiv_pos_as_xyz
  1  'x, y, z'
loop_
 _atom_site_type_symbol
 _atom_site_label
 _atom_site_symmetry_multiplicity
 _atom_site_fract_x
 _atom_site_fract_y
 _atom_site_fract_z
 _atom_site_occupancy
  C  C0  1  0.49999958  0.19999229  0.53422821  1
  C  C1  1  0.50000014  0.20025225  0.69667858  1
  C  C2  1  0.50000001  0.19407761  0.85833230  1
  C  C3  1  0.49999997  0.22376289  0.61436490  1
  C  C4  1  0.49999998  0.22142794  0.78071241  1
  C  C5  1  0.50000033  0.21442692  0.94144782  1
  C  C6  1  0.49999990  0.27286815  0.62128818  1
  C  C7  1  0.50000009  0.26995959  0.78826089  1
  C  C8  1  0.50000026  0.26106504  0.94886693  1
  C  C9  1  0.49999991  0.29836353  0.54360328  1
  C  C10  1  0.50000001  0.29529835  0.70683128  1
  C  C11  1  0.50000013  0.29153774  0.87481416  1
  C  C12  1  0.49999994  0.34776072  0.04784933  1
  C  C13  1  0.50000002  0.34749306  0.21176239  1
  C  C14  1  0.50000005  0.34730168  0.37702094  1
  C  C15  1  0.49999994  0.34503331  0.54417035  1
  C  C16  1  0.50000001  0.34320565  0.71030858  1
  C  C17  1  0.50000007  0.34116748  0.87877470  1
  C  C18  1  0.49999998  0.37090706  0.12979569  1
  C  C19  1  0.50000004  0.37026362  0.29416978  1
  C  C20  1  0.50000000  0.36936294  0.45951001  1
  C  C21  1  0.49999996  0.36818456  0.62806966  1
  C  C22  1  0.50000004  0.36607725  0.79623996  1
  C  C23  1  0.50000001  0.36721892  0.96243974  1
  C  C24  1  0.49999999  0.41844955  0.12867836  1
  C  C25  1  0.50000002  0.41818869  0.29461289  1
  C  C26  1  0.50000000  0.41724374  0.46120603  1
  C  C27  1  0.49999998  0.41621438  0.62851089  1
  C  C28  1  0.50000000  0.41485762  0.79546405  1
  C  C29  1  0.50000000  0.41582199  0.96113276  1
  C  C30  1  0.49999999  0.44060171  0.04411811  1
  C  C31  1  0.50000000  0.44191062  0.21161375  1
  C  C32  1  0.50000000  0.44124689  0.37815779  1
  C  C33  1  0.49999999  0.44041535  0.54521354  1
  C  C34  1  0.49999999  0.43943157  0.71229895  1
  C  C35  1  0.50000000  0.43955863  0.87801236  1
  C  C36  1  0.50000001  0.48848754  0.04391154  1
  C  C37  1  0.50000001  0.48935278  0.21127229  1
  C  C38  1  0.49999999  0.48893421  0.37833940  1
  C  C39  1  0.50000000  0.48828913  0.54529744  1
  C  C40  1  0.50000000  0.48771381  0.71195474  1
  C  C41  1  0.50000000  0.48781460  0.87778462  1
  C  C42  1  0.50000002  0.51240570  0.12724438  1
  C  C43  1  0.50000000  0.51260381  0.29492336  1
  C  C44  1  0.50000000  0.51226005  0.46197298  1
  C  C45  1  0.50000000  0.51189148  0.62880591  1
  C  C46  1  0.50000000  0.51186124  0.79479481  1
  C  C47  1  0.50000001  0.51206817  0.96057475  1
  C  C48  1  0.50000001  0.56013369  0.12712567  1
  C  C49  1  0.49999999  0.56012265  0.29475048  1
  C  C50  1  0.50000000  0.55999105  0.46179388  1
  C  C51  1  0.50000000  0.55996910  0.62865204  1
  C  C52  1  0.50000000  0.56005858  0.79468873  1
  C  C53  1  0.50000001  0.56009699  0.96053553  1
  C  C54  1  0.50000000  0.58393017  0.04367805  1
  C  C55  1  0.49999998  0.58340029  0.21093924  1
  C  C56  1  0.50000000  0.58359446  0.37823859  1
  C  C57  1  0.50000001  0.58374410  0.54510767  1
  C  C58  1  0.50000000  0.58409394  0.71165707  1
  C  C59  1  0.49999999  0.58417868  0.87758235  1
  C  C60  1  0.49999999  0.63182334  0.04374424  1
  C  C61  1  0.49999998  0.63095564  0.21100076  1
  C  C62  1  0.50000001  0.63134419  0.37779759  1
  C  C63  1  0.50000002  0.63161518  0.54451240  1
  C  C64  1  0.49999999  0.63229677  0.71146692  1
  C  C65  1  0.49999998  0.63236656  0.87762184  1
  C  C66  1  0.49999998  0.65451335  0.12789929  1
  C  C67  1  0.50000000  0.65453191  0.29415527  1
  C  C68  1  0.50000003  0.65517378  0.46088267  1
  C  C69  1  0.50000001  0.65555663  0.62755435  1
  C  C70  1  0.49999998  0.65661678  0.79483076  1
  C  C71  1  0.49999998  0.65625804  0.96061715  1
  C  C72  1  0.49999999  0.70234544  0.12855192  1
  C  C73  1  0.50000005  0.70255317  0.29365202  1
  C  C74  1  0.50000006  0.70326713  0.45940697  1
  C  C75  1  0.50000002  0.70357842  0.62686052  1
  C  C76  1  0.49999999  0.70507720  0.79551286  1
  C  C77  1  0.49999996  0.70476139  0.96161313  1
  C  C78  1  0.49999996  0.72547598  0.04617296  1
  C  C79  1  0.50000004  0.72543690  0.21100406  1
  C  C80  1  0.50000010  0.72544834  0.37654677  1
  C  C81  1  0.50000006  0.72748182  0.54344219  1
  C  C82  1  0.50000002  0.72741526  0.70971704  1
  C  C83  1  0.49999996  0.72987445  0.87816237  1
  C  C84  1  0.50000008  0.77505053  0.54412394  1
  C  C85  1  0.50000005  0.77530914  0.70735631  1
  C  C86  1  0.49999992  0.77949298  0.87462154  1
  C  C87  1  0.50000007  0.79834198  0.62341094  1
  C  C88  1  0.50000002  0.79915430  0.78708675  1
  C  C89  1  0.49999982  0.81232237  0.94163770  1
  H  H90  1  0.49999979  0.16334016  0.53648027  1
  H  H91  1  0.50000015  0.16359256  0.69508393  1
  H  H92  1  0.49999991  0.15762458  0.85084852  1
  H  H93  1  0.50000005  0.83500984  0.62359181  1
  H  H94  1  0.50000008  0.83579235  0.78310486  1
  H  H95  1  0.49999970  0.84722979  0.91877243  1
  H  H96  1  0.49999888  0.21530024  0.46736798  1
  H  H97  1  0.49999996  0.28082599  0.47936664  1
  H  H98  1  0.49999983  0.31228874  0.05719418  1
  H  H99  1  0.50000003  0.31080577  0.21124575  1
  H  H100  1  0.50000010  0.31082128  0.37355591  1
  H  H101  1  0.49999993  0.76140170  0.05165816  1
  H  H102  1  0.50000003  0.76213290  0.21050842  1
  H  H103  1  0.50000019  0.76196376  0.37360349  1
  H  H104  1  0.50000006  0.79354993  0.48066626  1
  H  H105  1  0.50000071  0.19440161  0.00330366  1
  H  H106  1  0.50000014  0.27134891  0.01822267  1
  H  H107  1  0.49999994  0.80867919  0.01427670  1
