# generated using pymatgen
data_H13C33
_symmetry_space_group_name_H-M   'P 1'
_cell_length_a   10.00000000
_cell_length_b   29.89204000
_cell_length_c   14.92776180
_cell_angle_alpha   90.00000000
_cell_angle_beta   90.00000000
_cell_angle_gamma   90.00000000
_symmetry_Int_Tables_number   1
_chemical_formula_structural   H13C33
_chemical_formula_sum   'H26 C66'
_cell_volume   4462.21252722
_cell_formula_units_Z   2
loop_
 _symmetry_equiv_pos_site_id
 _symmetry_equiv_pos_as_xyz
  1  'x, y, z'
loop_
 _atom_site_type_symbol
 _atom_site_label
 _atom_site_symmetry_multiplicity
 _atom_site_fract_x
 _atom_site_fract_y
 _atom_site_fract_z
 _atom_site_occupancy
  C  C0  1  0.49999903  0.20123879  0.51210865  1
  C  C1  1  0.49999953  0.19980839  0.67457670  1
  C  C2  1  0.50000050  0.19475018  0.83924531  1
  C  C3  1  0.49999927  0.22415729  0.59283227  1
  C  C4  1  0.49999973  0.22043297  0.75911897  1
  C  C5  1  0.50000224  0.21574361  0.92217406  1
  C  C6  1  0.49999912  0.27331065  0.59887636  1
  C  C7  1  0.50000004  0.26859202  0.76500722  1
  C  C8  1  0.50000231  0.26249371  0.92793673  1
  C  C9  1  0.49999786  0.30034591  0.52172111  1
  C  C10  1  0.49999969  0.29474144  0.68413273  1
  C  C11  1  0.50000096  0.28953733  0.85041298  1
  C  C12  1  0.49999763  0.34660244  0.52705975  1
  C  C13  1  0.49999900  0.34270853  0.68962880  1
  C  C14  1  0.50000039  0.33820982  0.85562637  1
  C  C15  1  0.49999817  0.36906908  0.61031011  1
  C  C16  1  0.49999859  0.36426053  0.77581504  1
  C  C17  1  0.50000082  0.36070704  0.93868793  1
  C  C18  1  0.49999758  0.41772870  0.61650652  1
  C  C19  1  0.49999601  0.41218757  0.78128998  1
  C  C20  1  0.49999770  0.40683000  0.94369783  1
  C  C21  1  0.49999811  0.44497213  0.53937615  1
  C  C22  1  0.49999608  0.43915077  0.70160538  1
  C  C23  1  0.49999429  0.43367428  0.86594929  1
  C  C24  1  0.49999750  0.49107633  0.54537375  1
  C  C25  1  0.49999499  0.48725746  0.70784174  1
  C  C26  1  0.49999489  0.48213604  0.87129879  1
  C  C27  1  0.49999601  0.51338031  0.62888163  1
  C  C28  1  0.49999461  0.50940300  0.79369301  1
  C  C29  1  0.50001773  0.50421866  0.95406720  1
  C  C30  1  0.49999588  0.56195300  0.63601890  1
  C  C31  1  0.49999646  0.55788451  0.80101004  1
  C  C32  1  0.50003867  0.55009212  0.96057767  1
  C  C33  1  0.49999863  0.58761399  0.55849935  1
  C  C34  1  0.49999553  0.58412036  0.72104752  1
  C  C35  1  0.50000944  0.58004588  0.88658959  1
  C  C36  1  0.49996501  0.63569568  0.06376279  1
  C  C37  1  0.49998849  0.63580544  0.22842111  1
  C  C38  1  0.50000029  0.63651265  0.39275055  1
  C  C39  1  0.49999980  0.63414658  0.55929064  1
  C  C40  1  0.49999939  0.63209473  0.72552311  1
  C  C41  1  0.49999970  0.62945446  0.89298743  1
  C  C42  1  0.49998718  0.65860543  0.14614516  1
  C  C43  1  0.49999827  0.65919421  0.30960811  1
  C  C44  1  0.50000073  0.65855954  0.47439067  1
  C  C45  1  0.49999999  0.65671962  0.64310115  1
  C  C46  1  0.49999966  0.65492029  0.81188782  1
  C  C47  1  0.49999155  0.65481706  0.97803698  1
  C  C48  1  0.50000329  0.70654899  0.14513767  1
  C  C49  1  0.50000144  0.70776590  0.30941527  1
  C  C50  1  0.50000062  0.70692524  0.47513843  1
  C  C51  1  0.50000005  0.70487017  0.64350670  1
  C  C52  1  0.50000002  0.70423293  0.81241692  1
  C  C53  1  0.50000410  0.70399852  0.97753328  1
  C  C54  1  0.50000488  0.72660456  0.05997669  1
  C  C55  1  0.50000515  0.73037923  0.22660252  1
  C  C56  1  0.50000135  0.72993593  0.39327176  1
  C  C57  1  0.50000020  0.72955531  0.56094595  1
  C  C58  1  0.49999974  0.72737055  0.72720942  1
  C  C59  1  0.50000358  0.72902448  0.89442753  1
  C  C60  1  0.50000008  0.77711619  0.56369548  1
  C  C61  1  0.49999990  0.77537391  0.72595683  1
  C  C62  1  0.50000275  0.77892583  0.89190166  1
  C  C63  1  0.49999983  0.79936493  0.64353683  1
  C  C64  1  0.50000051  0.79886337  0.80525885  1
  C  C65  1  0.50000193  0.81230460  0.95753794  1
  H  H66  1  0.49999965  0.16458012  0.51179713  1
  H  H67  1  0.49999927  0.16315980  0.67108800  1
  H  H68  1  0.50000007  0.15814686  0.83457608  1
  H  H69  1  0.50000016  0.83601627  0.64581676  1
  H  H70  1  0.49999948  0.83548341  0.80202272  1
  H  H71  1  0.49999973  0.84687623  0.93282008  1
  H  H72  1  0.49999928  0.21798159  0.44699335  1
  H  H73  1  0.49999725  0.28467995  0.45546379  1
  H  H74  1  0.49999680  0.36565964  0.46455902  1
  H  H75  1  0.49999890  0.42978510  0.47278245  1
  H  H76  1  0.49999767  0.50996532  0.48270894  1
  H  H77  1  0.49999988  0.57054620  0.49426903  1
  H  H78  1  0.49990417  0.60020549  0.07405506  1
  H  H79  1  0.49998672  0.59909028  0.22957756  1
  H  H80  1  0.49999942  0.59996775  0.38958236  1
  H  H81  1  0.50000463  0.76255633  0.06016181  1
  H  H82  1  0.50000810  0.76709625  0.22553853  1
  H  H83  1  0.50000168  0.76653710  0.39169061  1
  H  H84  1  0.50000039  0.79641348  0.50156057  1
  H  H85  1  0.50000296  0.19585550  -0.01613315  1
  H  H86  1  0.50000330  0.27794053  -0.00569127  1
  H  H87  1  0.50000376  0.34171287  0.00127547  1
  H  H88  1  0.49999821  0.42238244  0.00990563  1
  H  H89  1  0.50003046  0.48525884  0.01665429  1
  H  H90  1  0.50010073  0.56124599  0.02885986  1
  H  H91  1  0.50000283  0.81022095  0.03009463  1
