# generated using pymatgen
data_H3C13
_symmetry_space_group_name_H-M   'P 1'
_cell_length_a   10.00000000
_cell_length_b   25.62946000
_cell_length_c   14.85224634
_cell_angle_alpha   90.00000000
_cell_angle_beta   90.00000000
_cell_angle_gamma   90.00000000
_symmetry_Int_Tables_number   1
_chemical_formula_structural   H3C13
_chemical_formula_sum   'H18 C78'
_cell_volume   3806.55053432
_cell_formula_units_Z   6
loop_
 _symmetry_equiv_pos_site_id
 _symmetry_equiv_pos_as_xyz
  1  'x, y, z'
loop_
 _atom_site_type_symbol
 _atom_site_label
 _atom_site_symmetry_multiplicity
 _atom_site_fract_x
 _atom_site_fract_y
 _atom_site_fract_z
 _atom_site_occupancy
  C  C0  1  0.49999991  0.80839601  0.53259676  1
  C  C1  1  0.50000116  0.80773923  0.69463072  1
  C  C2  1  0.50000078  0.81490517  0.85611720  1
  C  C3  1  0.50000035  0.17761468  0.56198622  1
  C  C4  1  0.50000088  0.19298763  0.71638682  1
  C  C5  1  0.50000184  0.19378500  0.87996630  1
  C  C6  1  0.50000037  0.21594545  0.62892911  1
  C  C7  1  0.50000123  0.22072277  0.79614546  1
  C  C8  1  0.50000067  0.22092078  0.95919954  1
  C  C9  1  0.49999859  0.27857746  0.12697836  1
  C  C10  1  0.49999827  0.27847898  0.29279612  1
  C  C11  1  0.49999930  0.27869345  0.45799289  1
  C  C12  1  0.50000013  0.27381951  0.62553205  1
  C  C13  1  0.50000026  0.27661432  0.79391727  1
  C  C14  1  0.49999946  0.27642493  0.96002642  1
  C  C15  1  0.49999884  0.30452039  0.04418007  1
  C  C16  1  0.49999858  0.30513740  0.21005566  1
  C  C17  1  0.49999913  0.30536098  0.37532357  1
  C  C18  1  0.49999979  0.30310791  0.54223854  1
  C  C19  1  0.50000012  0.30271221  0.70824904  1
  C  C20  1  0.49999952  0.30439907  0.87677129  1
  C  C21  1  0.49999900  0.36061474  0.04277988  1
  C  C22  1  0.49999922  0.36112072  0.20958178  1
  C  C23  1  0.49999980  0.36113340  0.37607898  1
  C  C24  1  0.49999993  0.35963776  0.54346099  1
  C  C25  1  0.49999981  0.35931520  0.70915987  1
  C  C26  1  0.49999919  0.36046192  0.87623318  1
  C  C27  1  0.49999948  0.38822953  0.12592173  1
  C  C28  1  0.49999992  0.38841116  0.29294084  1
  C  C29  1  0.50000006  0.38778287  0.46014544  1
  C  C30  1  0.49999992  0.38759388  0.62649202  1
  C  C31  1  0.49999945  0.38771491  0.79250664  1
  C  C32  1  0.49999924  0.38825446  0.95933690  1
  C  C33  1  0.50000031  0.44395936  0.12561266  1
  C  C34  1  0.50000044  0.44380781  0.29306869  1
  C  C35  1  0.50000027  0.44365695  0.46031122  1
  C  C36  1  0.49999986  0.44389695  0.62682582  1
  C  C37  1  0.49999930  0.44407008  0.79269016  1
  C  C38  1  0.49999967  0.44422272  0.95888553  1
  C  C39  1  0.50000030  0.47177675  0.04212480  1
  C  C40  1  0.50000085  0.47084145  0.20947196  1
  C  C41  1  0.50000057  0.47106126  0.37672225  1
  C  C42  1  0.50000017  0.47162882  0.54349091  1
  C  C43  1  0.49999934  0.47223551  0.70992020  1
  C  C44  1  0.49999940  0.47225948  0.87576194  1
  C  C45  1  0.50000050  0.52756944  0.04224285  1
  C  C46  1  0.50000121  0.52615774  0.20969358  1
  C  C47  1  0.50000089  0.52674139  0.37641855  1
  C  C48  1  0.50000009  0.52757798  0.54336461  1
  C  C49  1  0.49999910  0.52863565  0.71035326  1
  C  C50  1  0.49999931  0.52862492  0.87601582  1
  C  C51  1  0.50000096  0.55343586  0.12673470  1
  C  C52  1  0.50000132  0.55365764  0.29283836  1
  C  C53  1  0.50000047  0.55469049  0.45935116  1
  C  C54  1  0.49999948  0.55576646  0.62659646  1
  C  C55  1  0.49999895  0.55736953  0.79344765  1
  C  C56  1  0.49999985  0.55630037  0.95916663  1
  C  C57  1  0.50000075  0.60889976  0.12786591  1
  C  C58  1  0.50000109  0.60957458  0.29234008  1
  C  C59  1  0.50000016  0.61059700  0.45760441  1
  C  C60  1  0.49999934  0.61183523  0.62612650  1
  C  C61  1  0.49999913  0.61430045  0.79421950  1
  C  C62  1  0.49999977  0.61304715  0.96046550  1
  C  C63  1  0.50000023  0.63575853  0.04581502  1
  C  C64  1  0.50000089  0.63612002  0.20992812  1
  C  C65  1  0.50000048  0.63634497  0.37517289  1
  C  C66  1  0.49999962  0.63887035  0.54230772  1
  C  C67  1  0.49999943  0.64096506  0.70829472  1
  C  C68  1  0.49999938  0.64335231  0.87668843  1
  C  C69  1  0.49999998  0.69330398  0.54164027  1
  C  C70  1  0.50000000  0.69684984  0.70478948  1
  C  C71  1  0.49999971  0.70124232  0.87266664  1
  C  C72  1  0.50000020  0.72301608  0.61924779  1
  C  C73  1  0.50000028  0.72639336  0.78614824  1
  C  C74  1  0.49999962  0.73681238  0.94669273  1
  C  C75  1  0.50000061  0.78032726  0.61235243  1
  C  C76  1  0.50000082  0.78301139  0.77855907  1
  C  C77  1  0.50000019  0.79121803  0.93923194  1
  H  H78  1  0.49999966  0.85116733  0.53577012  1
  H  H79  1  0.50000153  0.85054332  0.69304878  1
  H  H80  1  0.50000071  0.85741639  0.84853863  1
  H  H81  1  0.50000051  0.13695776  0.58514516  1
  H  H82  1  0.50000084  0.15026746  0.72028688  1
  H  H83  1  0.50000328  0.15100533  0.87961841  1
  H  H84  1  0.49999840  0.79098985  0.46541237  1
  H  H85  1  0.50000041  0.18168610  0.48933683  1
  H  H86  1  0.49999882  0.23599483  0.12973847  1
  H  H87  1  0.49999775  0.23569299  0.29322963  1
  H  H88  1  0.49999884  0.23678632  0.45305078  1
  H  H89  1  0.50000023  0.67716058  0.05492759  1
  H  H90  1  0.50000048  0.67893078  0.20945949  1
  H  H91  1  0.50000009  0.67889949  0.37152258  1
  H  H92  1  0.50000013  0.71373093  0.47741172  1
  H  H93  1  0.50000090  0.19936664  0.02261166  1
  H  H94  1  0.49999897  0.72476322  0.01597879  1
  H  H95  1  0.49999997  0.81467050  0.00098732  1
