# generated using pymatgen
data_H3C11
_symmetry_space_group_name_H-M   'P 1'
_cell_length_a   10.00000000
_cell_length_b   25.62946000
_cell_length_c   14.86629400
_cell_angle_alpha   90.00000000
_cell_angle_beta   90.00000000
_cell_angle_gamma   90.00000000
_symmetry_Int_Tables_number   1
_chemical_formula_structural   H3C11
_chemical_formula_sum   'H18 C66'
_cell_volume   3810.15087332
_cell_formula_units_Z   6
loop_
 _symmetry_equiv_pos_site_id
 _symmetry_equiv_pos_as_xyz
  1  'x, y, z'
loop_
 _atom_site_type_symbol
 _atom_site_label
 _atom_site_symmetry_multiplicity
 _atom_site_fract_x
 _atom_site_fract_y
 _atom_site_fract_z
 _atom_site_occupancy
  C  C0  1  0.49999893  0.23451711  0.53433201  1
  C  C1  1  0.49999942  0.23428636  0.69663717  1
  C  C2  1  0.50000005  0.22694428  0.85789558  1
  C  C3  1  0.49999946  0.26188732  0.61464616  1
  C  C4  1  0.50000019  0.25896387  0.78054562  1
  C  C5  1  0.50000094  0.25050958  0.94107087  1
  C  C6  1  0.49999999  0.31911212  0.62188793  1
  C  C7  1  0.50000107  0.31556134  0.78833577  1
  C  C8  1  0.50000140  0.30491139  0.94867449  1
  C  C9  1  0.49999945  0.34881832  0.54443465  1
  C  C10  1  0.50000102  0.34525382  0.70725354  1
  C  C11  1  0.50000141  0.34058333  0.87490274  1
  C  C12  1  0.49999937  0.40587676  0.04835068  1
  C  C13  1  0.49999844  0.40540868  0.21240777  1
  C  C14  1  0.49999927  0.40516145  0.37799640  1
  C  C15  1  0.50000002  0.40318292  0.54513746  1
  C  C16  1  0.50000125  0.40112128  0.71100537  1
  C  C17  1  0.50000123  0.39850942  0.87924862  1
  C  C18  1  0.49999897  0.43273313  0.13037885  1
  C  C19  1  0.49999874  0.43179302  0.29500560  1
  C  C20  1  0.49999954  0.43114336  0.46023174  1
  C  C21  1  0.50000076  0.43026147  0.62890841  1
  C  C22  1  0.50000126  0.42769540  0.79698331  1
  C  C23  1  0.50000039  0.42871391  0.96309994  1
  C  C24  1  0.49999946  0.48824024  0.12924045  1
  C  C25  1  0.49999901  0.48773503  0.29549917  1
  C  C26  1  0.49999954  0.48701539  0.46190535  1
  C  C27  1  0.50000047  0.48633474  0.62932940  1
  C  C28  1  0.50000080  0.48468886  0.79628274  1
  C  C29  1  0.50000032  0.48552487  0.96184259  1
  C  C30  1  0.49999991  0.51426488  0.04473787  1
  C  C31  1  0.49999945  0.51519632  0.21249276  1
  C  C32  1  0.49999945  0.51481440  0.37885624  1
  C  C33  1  0.49999994  0.51416593  0.54583963  1
  C  C34  1  0.50000045  0.51344541  0.71319263  1
  C  C35  1  0.50000046  0.51331722  0.87883700  1
  C  C36  1  0.49999999  0.57028282  0.04485089  1
  C  C37  1  0.50000004  0.57053575  0.21234057  1
  C  C38  1  0.50000009  0.57062299  0.37881785  1
  C  C39  1  0.49999995  0.57006295  0.54567287  1
  C  C40  1  0.49999991  0.56998042  0.71302968  1
  C  C41  1  0.49999995  0.56988994  0.87891530  1
  C  C42  1  0.50000025  0.59725185  0.12877284  1
  C  C43  1  0.50000060  0.59788850  0.29545227  1
  C  C44  1  0.50000028  0.59796306  0.46219169  1
  C  C45  1  0.49999988  0.59740556  0.62920495  1
  C  C46  1  0.49999960  0.59833602  0.79629855  1
  C  C47  1  0.49999986  0.59818853  0.96158081  1
  C  C48  1  0.50000089  0.65306946  0.12943692  1
  C  C49  1  0.50000132  0.65390543  0.29495902  1
  C  C50  1  0.50000080  0.65408676  0.46092442  1
  C  C51  1  0.49999989  0.65354616  0.62848705  1
  C  C52  1  0.49999903  0.65507416  0.79691677  1
  C  C53  1  0.49999968  0.65480017  0.96260625  1
  C  C54  1  0.50000055  0.67946111  0.04659340  1
  C  C55  1  0.50000161  0.68020234  0.21186600  1
  C  C56  1  0.50000135  0.68031194  0.37820969  1
  C  C57  1  0.50000062  0.68176425  0.54538862  1
  C  C58  1  0.49999927  0.68120350  0.71134258  1
  C  C59  1  0.49999887  0.68404951  0.87943551  1
  C  C60  1  0.50000117  0.73725890  0.54642076  1
  C  C61  1  0.49999925  0.73711490  0.70917643  1
  C  C62  1  0.49999845  0.74198430  0.87611554  1
  C  C63  1  0.50000045  0.76425789  0.62563647  1
  C  C64  1  0.49999851  0.76488357  0.78873513  1
  C  C65  1  0.49999867  0.78047838  0.94276796  1
  H  H66  1  0.49999870  0.19177160  0.53604706  1
  H  H67  1  0.49999856  0.19149315  0.69500424  1
  H  H68  1  0.49999933  0.18444738  0.85011022  1
  H  H69  1  0.50000090  0.80701014  0.62630567  1
  H  H70  1  0.49999841  0.80759786  0.78479208  1
  H  H71  1  0.49999860  0.82108239  0.91934419  1
  H  H72  1  0.49999909  0.25280191  0.46790857  1
  H  H73  1  0.49999840  0.32844240  0.48022814  1
  H  H74  1  0.49999882  0.36449337  0.05758392  1
  H  H75  1  0.49999835  0.36259983  0.21164004  1
  H  H76  1  0.49999991  0.36258413  0.37462699  1
  H  H77  1  0.50000094  0.72139465  0.05090471  1
  H  H78  1  0.50000188  0.72300439  0.21097272  1
  H  H79  1  0.50000151  0.72294565  0.37570092  1
  H  H80  1  0.50000201  0.75890060  0.48316774  1
  H  H81  1  0.50000121  0.22699148  0.00269608  1
  H  H82  1  0.50000166  0.31686241  0.01798476  1
  H  H83  1  0.49999914  0.77675862  0.01540864  1
