# generated using pymatgen
data_H7C15
_symmetry_space_group_name_H-M   'P 1'
_cell_length_a   10.00000000
_cell_length_b   17.10430000
_cell_length_c   14.83113464
_cell_angle_alpha   90.00000000
_cell_angle_beta   90.00000000
_cell_angle_gamma   90.00000000
_symmetry_Int_Tables_number   1
_chemical_formula_structural   H7C15
_chemical_formula_sum   'H14 C30'
_cell_volume   2536.76176217
_cell_formula_units_Z   2
loop_
 _symmetry_equiv_pos_site_id
 _symmetry_equiv_pos_as_xyz
  1  'x, y, z'
loop_
 _atom_site_type_symbol
 _atom_site_label
 _atom_site_symmetry_multiplicity
 _atom_site_fract_x
 _atom_site_fract_y
 _atom_site_fract_z
 _atom_site_occupancy
  C  C0  1  0.49999999  0.35200472  0.04154656  1
  C  C1  1  0.50000007  0.34625826  0.21035091  1
  C  C2  1  0.50000005  0.34858229  0.37909924  1
  C  C3  1  0.49999999  0.35300606  0.54581992  1
  C  C4  1  0.50000001  0.35744943  0.71200871  1
  C  C5  1  0.50000001  0.35713346  0.87656192  1
  C  C6  1  0.50000004  0.38722846  0.12726650  1
  C  C7  1  0.50000009  0.38594047  0.29388533  1
  C  C8  1  0.50000001  0.39068361  0.46106966  1
  C  C9  1  0.50000001  0.39483476  0.62758263  1
  C  C10  1  0.50000000  0.39830067  0.79460531  1
  C  C11  1  0.49999999  0.39551650  0.96009656  1
  C  C12  1  0.50000005  0.47213753  0.12861318  1
  C  C13  1  0.50000008  0.47126255  0.29344038  1
  C  C14  1  0.50000001  0.47609249  0.45910741  1
  C  C15  1  0.49999999  0.47976167  0.62652751  1
  C  C16  1  0.49999999  0.48363260  0.79541263  1
  C  C17  1  0.49999998  0.48119643  0.96190488  1
  C  C18  1  0.50000000  0.51480421  0.04732925  1
  C  C19  1  0.50000007  0.51148316  0.21123573  1
  C  C20  1  0.50000004  0.51281569  0.37530359  1
  C  C21  1  0.49999997  0.51977400  0.54225646  1
  C  C22  1  0.50000000  0.52180685  0.70911512  1
  C  C23  1  0.49999999  0.52581648  0.87836620  1
  C  C24  1  0.49999993  0.60343936  0.54245325  1
  C  C25  1  0.50000002  0.60579554  0.70638945  1
  C  C26  1  0.49999997  0.61274774  0.87418794  1
  C  C27  1  0.49999998  0.64488905  0.62122484  1
  C  C28  1  0.50000003  0.64727658  0.78611883  1
  C  C29  1  0.49999988  0.66906109  0.94188029  1
  H  H30  1  0.49999999  0.28798699  0.03687433  1
  H  H31  1  0.50000006  0.28204023  0.20955864  1
  H  H32  1  0.50000001  0.28442357  0.38186014  1
  H  H33  1  0.49999998  0.28881735  0.54802387  1
  H  H34  1  0.50000003  0.29334927  0.71393772  1
  H  H35  1  0.50000004  0.29299423  0.87490689  1
  H  H36  1  0.49999999  0.70902531  0.62040365  1
  H  H37  1  0.50000004  0.71133095  0.78246098  1
  H  H38  1  0.49999980  0.73037754  0.92020010  1
  H  H39  1  0.50000000  0.57755554  0.05543738  1
  H  H40  1  0.50000006  0.57569378  0.21196758  1
  H  H41  1  0.50000001  0.57661621  0.37037772  1
  H  H42  1  0.49999978  0.63551722  0.47871304  1
  H  H43  1  0.49999997  0.66130153  0.01451776  1
