# generated using pymatgen
data_H4C15
_symmetry_space_group_name_H-M   'P 1'
_cell_length_a   10.00000000
_cell_length_b   21.36688000
_cell_length_c   14.83512621
_cell_angle_alpha   90.00000000
_cell_angle_beta   90.00000000
_cell_angle_gamma   90.00000000
_symmetry_Int_Tables_number   1
_chemical_formula_structural   H4C15
_chemical_formula_sum   'H16 C60'
_cell_volume   3169.80361567
_cell_formula_units_Z   4
loop_
 _symmetry_equiv_pos_site_id
 _symmetry_equiv_pos_as_xyz
  1  'x, y, z'
loop_
 _atom_site_type_symbol
 _atom_site_label
 _atom_site_symmetry_multiplicity
 _atom_site_fract_x
 _atom_site_fract_y
 _atom_site_fract_z
 _atom_site_occupancy
  C  C0  1  0.49999848  0.76852483  0.53318153  1
  C  C1  1  0.49999922  0.76790346  0.69556777  1
  C  C2  1  0.49999982  0.77643292  0.85735774  1
  C  C3  1  0.49999749  0.23172334  0.04374524  1
  C  C4  1  0.49999866  0.23070583  0.21100768  1
  C  C5  1  0.49999934  0.23069182  0.37872238  1
  C  C6  1  0.50000050  0.23200678  0.54591544  1
  C  C7  1  0.49999953  0.23292723  0.71203756  1
  C  C8  1  0.49999797  0.23276052  0.87770583  1
  C  C9  1  0.49999852  0.26288288  0.12752911  1
  C  C10  1  0.49999921  0.26209582  0.29493264  1
  C  C11  1  0.49999998  0.26304615  0.46200616  1
  C  C12  1  0.49999994  0.26461849  0.62876031  1
  C  C13  1  0.49999861  0.26512848  0.79490777  1
  C  C14  1  0.49999778  0.26435211  0.96092875  1
  C  C15  1  0.49999964  0.33059731  0.12746298  1
  C  C16  1  0.49999993  0.32971800  0.29500821  1
  C  C17  1  0.50000016  0.33079726  0.46194734  1
  C  C18  1  0.49999968  0.33248597  0.62877916  1
  C  C19  1  0.49999888  0.33301033  0.79492197  1
  C  C20  1  0.49999886  0.33215526  0.96078488  1
  C  C21  1  0.49999996  0.36442560  0.04425351  1
  C  C22  1  0.50000046  0.36250620  0.21152138  1
  C  C23  1  0.50000052  0.36305470  0.37821781  1
  C  C24  1  0.50000016  0.36473191  0.54496244  1
  C  C25  1  0.49999950  0.36628204  0.71186232  1
  C  C26  1  0.49999934  0.36617977  0.87801755  1
  C  C27  1  0.50000127  0.43165408  0.04414027  1
  C  C28  1  0.50000138  0.42924718  0.21159533  1
  C  C29  1  0.50000112  0.43016360  0.37797083  1
  C  C30  1  0.50000063  0.43194004  0.54476778  1
  C  C31  1  0.50000039  0.43389405  0.71201117  1
  C  C32  1  0.50000064  0.43383136  0.87801055  1
  C  C33  1  0.50000165  0.46235725  0.12876578  1
  C  C34  1  0.50000149  0.46243467  0.29438705  1
  C  C35  1  0.50000095  0.46408308  0.46066572  1
  C  C36  1  0.50000088  0.46590016  0.62793218  1
  C  C37  1  0.50000087  0.46807374  0.79530182  1
  C  C38  1  0.50000155  0.46657113  0.96128459  1
  C  C39  1  0.50000130  0.52896761  0.12965045  1
  C  C40  1  0.50000118  0.52964410  0.29382576  1
  C  C41  1  0.50000066  0.53119691  0.45885847  1
  C  C42  1  0.50000111  0.53316169  0.62735897  1
  C  C43  1  0.50000151  0.53630016  0.79578686  1
  C  C44  1  0.50000174  0.53463598  0.96227252  1
  C  C45  1  0.50000101  0.56160933  0.04778586  1
  C  C46  1  0.50000077  0.56165814  0.21156179  1
  C  C47  1  0.50000064  0.56195408  0.37646272  1
  C  C48  1  0.50000041  0.56532583  0.54338597  1
  C  C49  1  0.50000135  0.56810499  0.70961791  1
  C  C50  1  0.50000167  0.57096668  0.87827851  1
  C  C51  1  0.49999947  0.63064036  0.54255291  1
  C  C52  1  0.50000086  0.63505272  0.70594710  1
  C  C53  1  0.50000142  0.64032602  0.87405871  1
  C  C54  1  0.49999984  0.66635153  0.62018999  1
  C  C55  1  0.50000098  0.67047949  0.78741183  1
  C  C56  1  0.50000128  0.68284333  0.94816167  1
  C  C57  1  0.49999922  0.73502513  0.61318394  1
  C  C58  1  0.50000002  0.73827629  0.77968577  1
  C  C59  1  0.50000044  0.74806911  0.94062213  1
  H  H60  1  0.49999800  0.81982111  0.53610879  1
  H  H61  1  0.49999826  0.81922142  0.69389933  1
  H  H62  1  0.49999945  0.82741771  0.84969423  1
  H  H63  1  0.49999669  0.18039070  0.04250767  1
  H  H64  1  0.49999847  0.17936953  0.21041058  1
  H  H65  1  0.49999904  0.17936231  0.37955594  1
  H  H66  1  0.50000126  0.18064958  0.54719255  1
  H  H67  1  0.49999993  0.18154273  0.71253761  1
  H  H68  1  0.49999807  0.18139451  0.87721395  1
  H  H69  1  0.49999856  0.74746700  0.46600431  1
  H  H70  1  0.49999951  0.61118537  0.05780614  1
  H  H71  1  0.49999989  0.61300058  0.21078882  1
  H  H72  1  0.50000017  0.61298823  0.37252959  1
  H  H73  1  0.49999839  0.65507478  0.47820138  1
  H  H74  1  0.50000193  0.66816990  0.01744575  1
  H  H75  1  0.50000051  0.77601764  0.00256495  1
