# generated using pymatgen
data_HC3
_symmetry_space_group_name_H-M   'P 1'
_cell_length_a   10.00000000
_cell_length_b   25.62946000
_cell_length_c   14.89792085
_cell_angle_alpha   90.00000000
_cell_angle_beta   90.00000000
_cell_angle_gamma   90.00000000
_symmetry_Int_Tables_number   1
_chemical_formula_structural   HC3
_chemical_formula_sum   'H22 C66'
_cell_volume   3818.25666511
_cell_formula_units_Z   22
loop_
 _symmetry_equiv_pos_site_id
 _symmetry_equiv_pos_as_xyz
  1  'x, y, z'
loop_
 _atom_site_type_symbol
 _atom_site_label
 _atom_site_symmetry_multiplicity
 _atom_site_fract_x
 _atom_site_fract_y
 _atom_site_fract_z
 _atom_site_occupancy
  C  C0  1  0.49999386  0.80715861  0.51917085  1
  C  C1  1  0.49999972  0.80819176  0.68117936  1
  C  C2  1  0.50000372  0.81387397  0.84582836  1
  C  C3  1  0.50000434  0.17692535  0.57123099  1
  C  C4  1  0.49999909  0.19314840  0.72431349  1
  C  C5  1  0.49999614  0.19379145  0.88653188  1
  C  C6  1  0.50000156  0.21580688  0.63701794  1
  C  C7  1  0.49999827  0.22105217  0.80338355  1
  C  C8  1  0.49999713  0.22075111  0.96542380  1
  C  C9  1  0.50000016  0.27719776  0.13279678  1
  C  C10  1  0.49999817  0.27623409  0.29964244  1
  C  C11  1  0.49999779  0.27729297  0.46527798  1
  C  C12  1  0.50000117  0.27368890  0.63308537  1
  C  C13  1  0.50000058  0.27696924  0.80097054  1
  C  C14  1  0.50000034  0.27632055  0.96622125  1
  C  C15  1  0.50000150  0.30380798  0.05046777  1
  C  C16  1  0.50000081  0.30271048  0.21681236  1
  C  C17  1  0.49999920  0.30331588  0.38207200  1
  C  C18  1  0.50000036  0.30224292  0.54910121  1
  C  C19  1  0.50000135  0.30288840  0.71547690  1
  C  C20  1  0.50000187  0.30478127  0.88350721  1
  C  C21  1  0.50000329  0.36008753  0.04916504  1
  C  C22  1  0.50000296  0.35865433  0.21659890  1
  C  C23  1  0.50000141  0.35922108  0.38236251  1
  C  C24  1  0.50000140  0.35879295  0.54961877  1
  C  C25  1  0.50000174  0.35972967  0.71620374  1
  C  C26  1  0.50000345  0.36115199  0.88299756  1
  C  C27  1  0.50000351  0.38582877  0.13371136  1
  C  C28  1  0.50000230  0.38619798  0.29917954  1
  C  C29  1  0.50000145  0.38621689  0.46577604  1
  C  C30  1  0.50000186  0.38688529  0.63277048  1
  C  C31  1  0.50000216  0.38870653  0.79964526  1
  C  C32  1  0.50000380  0.38878559  0.96611669  1
  C  C33  1  0.49999822  0.44143298  0.13464897  1
  C  C34  1  0.50000210  0.44214620  0.29888402  1
  C  C35  1  0.50000189  0.44219714  0.46405437  1
  C  C36  1  0.50000168  0.44307039  0.63239598  1
  C  C37  1  0.50000168  0.44578472  0.80000167  1
  C  C38  1  0.49999904  0.44560954  0.96699739  1
  C  C39  1  0.49998893  0.46817670  0.05241239  1
  C  C40  1  0.49999892  0.46870449  0.21665521  1
  C  C41  1  0.50000268  0.46833500  0.38217640  1
  C  C42  1  0.50000120  0.47010275  0.54886266  1
  C  C43  1  0.50000113  0.47242448  0.71421871  1
  C  C44  1  0.50000141  0.47520754  0.88190998  1
  C  C45  1  0.49999957  0.52431156  0.54791320  1
  C  C46  1  0.49999854  0.52833028  0.71012974  1
  C  C47  1  0.50000381  0.53277924  0.87617494  1
  C  C48  1  0.49999785  0.55433097  0.62513286  1
  C  C49  1  0.49999811  0.55874643  0.79043589  1
  C  C50  1  0.50001398  0.56775663  0.95036940  1
  C  C51  1  0.49999632  0.61091416  0.61759154  1
  C  C52  1  0.49999624  0.61525126  0.78299141  1
  C  C53  1  0.50000425  0.62118766  0.94370055  1
  C  C54  1  0.49999581  0.63699906  0.53399655  1
  C  C55  1  0.49999599  0.64111910  0.69687270  1
  C  C56  1  0.49999567  0.64683869  0.86091865  1
  C  C57  1  0.49999601  0.69088903  0.52829834  1
  C  C58  1  0.49999596  0.69719867  0.69090983  1
  C  C59  1  0.49999660  0.70342683  0.85641713  1
  C  C60  1  0.49999607  0.72237421  0.60556322  1
  C  C61  1  0.49999705  0.72792533  0.77129604  1
  C  C62  1  0.50000030  0.73475137  0.93435483  1
  C  C63  1  0.49999660  0.77975862  0.59940319  1
  C  C64  1  0.50000000  0.78402489  0.76555588  1
  C  C65  1  0.50000429  0.78929108  0.92878102  1
  H  H66  1  0.49999528  0.84992786  0.52092446  1
  H  H67  1  0.50000138  0.85095089  0.67796165  1
  H  H68  1  0.50000627  0.85655076  0.84110711  1
  H  H69  1  0.50000298  0.13649957  0.59549191  1
  H  H70  1  0.49999886  0.15045449  0.72862078  1
  H  H71  1  0.49999417  0.15105466  0.88547728  1
  H  H72  1  0.49999069  0.78873816  0.45300829  1
  H  H73  1  0.50000896  0.17997519  0.49867999  1
  H  H74  1  0.49999833  0.23457603  0.13433237  1
  H  H75  1  0.49999503  0.23343366  0.30019385  1
  H  H76  1  0.49999337  0.23533450  0.46132034  1
  H  H77  1  0.49996509  0.50952086  0.06231295  1
  H  H78  1  0.49999836  0.51152606  0.21646426  1
  H  H79  1  0.50000355  0.51093087  0.37885265  1
  H  H80  1  0.49999934  0.54417105  0.48355766  1
  H  H81  1  0.49999579  0.61512372  0.47101219  1
  H  H82  1  0.49999679  0.70905545  0.46183664  1
  H  H83  1  0.49999562  0.19897336  0.02843513  1
  H  H84  1  0.50003919  0.55544773  0.01916514  1
  H  H85  1  0.50000828  0.64346279  0.00623691  1
  H  H86  1  0.50000076  0.71671997  0.00079921  1
  H  H87  1  0.50000756  0.81250549  -0.00947332  1
