# generated using pymatgen
data_H2C9
_symmetry_space_group_name_H-M   'P 1'
_cell_length_a   10.00000000
_cell_length_b   25.62946000
_cell_length_c   14.83177869
_cell_angle_alpha   90.00000000
_cell_angle_beta   90.00000000
_cell_angle_gamma   90.00000000
_symmetry_Int_Tables_number   1
_chemical_formula_structural   H2C9
_chemical_formula_sum   'H16 C72'
_cell_volume   3801.30478736
_cell_formula_units_Z   8
loop_
 _symmetry_equiv_pos_site_id
 _symmetry_equiv_pos_as_xyz
  1  'x, y, z'
loop_
 _atom_site_type_symbol
 _atom_site_label
 _atom_site_symmetry_multiplicity
 _atom_site_fract_x
 _atom_site_fract_y
 _atom_site_fract_z
 _atom_site_occupancy
  C  C0  1  0.49999883  0.23470571  0.03837501  1
  C  C1  1  0.49999846  0.23451129  0.20562916  1
  C  C2  1  0.49999889  0.23475377  0.37276884  1
  C  C3  1  0.49999939  0.23511954  0.53935472  1
  C  C4  1  0.49999915  0.23527895  0.70554569  1
  C  C5  1  0.49999890  0.23511866  0.87175790  1
  C  C6  1  0.49999917  0.26099033  0.12203786  1
  C  C7  1  0.49999915  0.26105253  0.28914947  1
  C  C8  1  0.49999934  0.26153948  0.45601075  1
  C  C9  1  0.49999910  0.26191735  0.62243344  1
  C  C10  1  0.49999940  0.26192178  0.78869559  1
  C  C11  1  0.49999913  0.26155244  0.95514967  1
  C  C12  1  0.50000011  0.31737567  0.12201908  1
  C  C13  1  0.50000014  0.31743355  0.28921441  1
  C  C14  1  0.49999989  0.31792727  0.45614283  1
  C  C15  1  0.49999957  0.31838797  0.62251082  1
  C  C16  1  0.49999998  0.31843396  0.78872711  1
  C  C17  1  0.49999991  0.31799535  0.95514603  1
  C  C18  1  0.50000025  0.34517655  0.03870512  1
  C  C19  1  0.50000045  0.34468286  0.20552710  1
  C  C20  1  0.50000036  0.34510073  0.37266885  1
  C  C21  1  0.50000013  0.34586736  0.53933922  1
  C  C22  1  0.50000018  0.34619877  0.70561251  1
  C  C23  1  0.50000027  0.34597916  0.87196890  1
  C  C24  1  0.50000033  0.40107494  0.03863247  1
  C  C25  1  0.50000039  0.40044633  0.20541042  1
  C  C26  1  0.50000054  0.40096395  0.37287651  1
  C  C27  1  0.50000083  0.40193273  0.53961193  1
  C  C28  1  0.50000084  0.40236445  0.70561743  1
  C  C29  1  0.50000056  0.40207863  0.87182642  1
  C  C30  1  0.50000012  0.42821855  0.12221900  1
  C  C31  1  0.50000020  0.42778704  0.28892874  1
  C  C32  1  0.50000067  0.42910061  0.45620072  1
  C  C33  1  0.50000110  0.43022306  0.62249172  1
  C  C34  1  0.50000068  0.43029868  0.78868303  1
  C  C35  1  0.50000032  0.42928302  0.95549280  1
  C  C36  1  0.49999981  0.48396288  0.12251526  1
  C  C37  1  0.49999989  0.48325411  0.28885695  1
  C  C38  1  0.50000033  0.48500133  0.45634025  1
  C  C39  1  0.50000082  0.48651843  0.62246130  1
  C  C40  1  0.50000028  0.48659825  0.78848106  1
  C  C41  1  0.49999984  0.48518731  0.95564335  1
  C  C42  1  0.49999976  0.51209455  0.03969056  1
  C  C43  1  0.49999993  0.51094228  0.20600505  1
  C  C44  1  0.50000011  0.51073206  0.37175967  1
  C  C45  1  0.50000040  0.51398378  0.53932984  1
  C  C46  1  0.50000030  0.51515770  0.70523510  1
  C  C47  1  0.49999970  0.51347640  0.87242616  1
  C  C48  1  0.50000009  0.56799592  0.04148370  1
  C  C49  1  0.50000062  0.56691909  0.20660448  1
  C  C50  1  0.50000053  0.56621313  0.37084459  1
  C  C51  1  0.50000005  0.57066123  0.53827763  1
  C  C52  1  0.49999973  0.57202249  0.70461058  1
  C  C53  1  0.49999941  0.56950366  0.87292513  1
  C  C54  1  0.50000070  0.59377666  0.12384989  1
  C  C55  1  0.50000116  0.59356705  0.28894639  1
  C  C56  1  0.50000026  0.59327560  0.45280206  1
  C  C57  1  0.49999982  0.60101802  0.62209379  1
  C  C58  1  0.49999938  0.59863585  0.79069185  1
  C  C59  1  0.49999999  0.59640197  0.95689957  1
  C  C60  1  0.49999965  0.65886498  0.62622506  1
  C  C61  1  0.49999955  0.65446167  0.79432910  1
  C  C62  1  0.50000077  0.65082079  0.95773255  1
  C  C63  1  0.49999966  0.69441044  0.55220012  1
  C  C64  1  0.49999959  0.68400414  0.71288487  1
  C  C65  1  0.50000030  0.68055087  0.88004699  1
  C  C66  1  0.49999958  0.74879196  0.55976266  1
  C  C67  1  0.49999998  0.74054882  0.72066511  1
  C  C68  1  0.50000065  0.73778498  0.88714388  1
  C  C69  1  0.49999978  0.77241534  0.64301874  1
  C  C70  1  0.50000063  0.76521952  0.80479916  1
  C  C71  1  0.50000112  0.76553984  0.96730053  1
  H  H72  1  0.49999838  0.19190421  0.03793580  1
  H  H73  1  0.49999738  0.19172226  0.20573052  1
  H  H74  1  0.49999844  0.19197257  0.37331602  1
  H  H75  1  0.49999998  0.19233041  0.53960880  1
  H  H76  1  0.49999919  0.19247525  0.70538634  1
  H  H77  1  0.49999814  0.19231518  0.87136580  1
  H  H78  1  0.49999977  0.81489909  0.65067895  1
  H  H79  1  0.50000117  0.80798692  0.80644012  1
  H  H80  1  0.50000179  0.80828778  0.96471998  1
  H  H81  1  0.50000109  0.63633846  0.12746948  1
  H  H82  1  0.50000185  0.63638917  0.28967146  1
  H  H83  1  0.50000008  0.63462497  0.44326607  1
  H  H84  1  0.50000004  0.68234703  0.48284525  1
  H  H85  1  0.49999949  0.77215869  0.49784729  1
  H  H86  1  0.50000165  0.67125722  0.02204209  1
  H  H87  1  0.50000066  0.74778133  0.03431180  1
