# generated using pymatgen
data_HC6
_symmetry_space_group_name_H-M   'P 1'
_cell_length_a   10.00000000
_cell_length_b   29.89204000
_cell_length_c   14.83004817
_cell_angle_alpha   90.00000000
_cell_angle_beta   90.00000000
_cell_angle_gamma   90.00000000
_symmetry_Int_Tables_number   1
_chemical_formula_structural   HC6
_chemical_formula_sum   'H16 C96'
_cell_volume   4433.00393230
_cell_formula_units_Z   16
loop_
 _symmetry_equiv_pos_site_id
 _symmetry_equiv_pos_as_xyz
  1  'x, y, z'
loop_
 _atom_site_type_symbol
 _atom_site_label
 _atom_site_symmetry_multiplicity
 _atom_site_fract_x
 _atom_site_fract_y
 _atom_site_fract_z
 _atom_site_occupancy
  C  C0  1  0.49999982  0.20049145  0.53225588  1
  C  C1  1  0.50000013  0.20056686  0.69502186  1
  C  C2  1  0.49999999  0.19441498  0.85701433  1
  C  C3  1  0.50000005  0.22413279  0.61265431  1
  C  C4  1  0.50000004  0.22171645  0.77923301  1
  C  C5  1  0.50000000  0.21484688  0.94016732  1
  C  C6  1  0.49999992  0.27323100  0.61982848  1
  C  C7  1  0.50000007  0.27025121  0.78690866  1
  C  C8  1  0.50000008  0.26147046  0.94757084  1
  C  C9  1  0.49999995  0.29878447  0.54220063  1
  C  C10  1  0.49999998  0.29561509  0.70552170  1
  C  C11  1  0.50000011  0.29189663  0.87350784  1
  C  C12  1  0.50000001  0.34807832  0.04690029  1
  C  C13  1  0.50000001  0.34769489  0.21070059  1
  C  C14  1  0.50000000  0.34759126  0.37595002  1
  C  C15  1  0.49999999  0.34542547  0.54297872  1
  C  C16  1  0.50000000  0.34349392  0.70914624  1
  C  C17  1  0.50000006  0.34148293  0.87766705  1
  C  C18  1  0.50000002  0.37124452  0.12885760  1
  C  C19  1  0.50000000  0.37053761  0.29312687  1
  C  C20  1  0.50000002  0.36974787  0.45834400  1
  C  C21  1  0.49999998  0.36851897  0.62694518  1
  C  C22  1  0.50000003  0.36636043  0.79512538  1
  C  C23  1  0.50000002  0.36747662  0.96143692  1
  C  C24  1  0.50000000  0.41879413  0.12783298  1
  C  C25  1  0.50000001  0.41853395  0.29358206  1
  C  C26  1  0.50000001  0.41763336  0.45999188  1
  C  C27  1  0.49999999  0.41651852  0.62737288  1
  C  C28  1  0.50000000  0.41509776  0.79447500  1
  C  C29  1  0.50000000  0.41608422  0.96024261  1
  C  C30  1  0.49999999  0.44093235  0.04323490  1
  C  C31  1  0.50000001  0.44233747  0.21069845  1
  C  C32  1  0.50000001  0.44172537  0.37701899  1
  C  C33  1  0.50000000  0.44074902  0.54400916  1
  C  C34  1  0.49999999  0.43964093  0.71124398  1
  C  C35  1  0.50000000  0.43976811  0.87714649  1
  C  C36  1  0.49999999  0.48883513  0.04320214  1
  C  C37  1  0.49999999  0.48985244  0.21047989  1
  C  C38  1  0.50000001  0.48948446  0.37721556  1
  C  C39  1  0.50000000  0.48862109  0.54408354  1
  C  C40  1  0.49999999  0.48786993  0.71092018  1
  C  C41  1  0.49999999  0.48796047  0.87700411  1
  C  C42  1  0.50000000  0.51294401  0.12651591  1
  C  C43  1  0.49999999  0.51334451  0.29396019  1
  C  C44  1  0.50000000  0.51281900  0.46083723  1
  C  C45  1  0.50000000  0.51209234  0.62766536  1
  C  C46  1  0.49999999  0.51193631  0.79389109  1
  C  C47  1  0.50000000  0.51230354  0.95982245  1
  C  C48  1  0.49999999  0.56071601  0.12660268  1
  C  C49  1  0.49999999  0.56100415  0.29375482  1
  C  C50  1  0.50000000  0.56063002  0.46061600  1
  C  C51  1  0.50000001  0.56007816  0.62736435  1
  C  C52  1  0.50000000  0.55998796  0.79370121  1
  C  C53  1  0.50000000  0.56027226  0.95995770  1
  C  C54  1  0.49999999  0.58431200  0.04320998  1
  C  C55  1  0.49999999  0.58453065  0.21005786  1
  C  C56  1  0.50000000  0.58455496  0.37723949  1
  C  C57  1  0.50000001  0.58419393  0.54408155  1
  C  C58  1  0.50000001  0.58395376  0.71048266  1
  C  C59  1  0.49999999  0.58405321  0.87675239  1
  C  C60  1  0.49999998  0.63217593  0.04331196  1
  C  C61  1  0.50000000  0.63233389  0.21010737  1
  C  C62  1  0.50000001  0.63235868  0.37705603  1
  C  C63  1  0.50000001  0.63211941  0.54378629  1
  C  C64  1  0.50000000  0.63193370  0.71026109  1
  C  C65  1  0.49999999  0.63199760  0.87671184  1
  C  C66  1  0.49999999  0.65600598  0.12667014  1
  C  C67  1  0.50000001  0.65606439  0.29356830  1
  C  C68  1  0.50000001  0.65602170  0.46043063  1
  C  C69  1  0.50000000  0.65587794  0.62702608  1
  C  C70  1  0.49999999  0.65580874  0.79343396  1
  C  C71  1  0.49999998  0.65587600  0.95995646  1
  C  C72  1  0.49999998  0.70394742  0.12669971  1
  C  C73  1  0.50000001  0.70399918  0.29351703  1
  C  C74  1  0.50000000  0.70398612  0.46026217  1
  C  C75  1  0.50000000  0.70389414  0.62686074  1
  C  C76  1  0.50000000  0.70382366  0.79337649  1
  C  C77  1  0.49999999  0.70384599  0.95998247  1
  C  C78  1  0.49999998  0.72758206  0.04330956  1
  C  C79  1  0.49999999  0.72764406  0.21008934  1
  C  C80  1  0.50000000  0.72768436  0.37688282  1
  C  C81  1  0.50000000  0.72765414  0.54358164  1
  C  C82  1  0.50000000  0.72758661  0.71013526  1
  C  C83  1  0.49999999  0.72753532  0.87667562  1
  C  C84  1  0.49999999  0.77599323  0.04339384  1
  C  C85  1  0.49999999  0.77605038  0.21012057  1
  C  C86  1  0.50000000  0.77609772  0.37686691  1
  C  C87  1  0.50000000  0.77607209  0.54356860  1
  C  C88  1  0.50000000  0.77601208  0.71018210  1
  C  C89  1  0.49999999  0.77596022  0.87676764  1
  C  C90  1  0.50000000  0.79883074  0.12673790  1
  C  C91  1  0.49999999  0.79887906  0.29346985  1
  C  C92  1  0.50000000  0.79889737  0.46022230  1
  C  C93  1  0.50000000  0.79886063  0.62690529  1
  C  C94  1  0.50000000  0.79880926  0.79351438  1
  C  C95  1  0.49999999  0.79880368  0.96007906  1
  H  H96  1  0.49999978  0.16380903  0.53404588  1
  H  H97  1  0.50000011  0.16387852  0.69326760  1
  H  H98  1  0.50000022  0.15795307  0.84956827  1
  H  H99  1  0.50000001  0.83555028  0.12663732  1
  H  H100  1  0.50000000  0.83559079  0.29336728  1
  H  H101  1  0.50000001  0.83560609  0.46017136  1
  H  H102  1  0.50000000  0.83556473  0.62698856  1
  H  H103  1  0.49999999  0.83552162  0.79366694  1
  H  H104  1  0.49999999  0.83552434  0.96007692  1
  H  H105  1  0.49999959  0.21603522  0.46551873  1
  H  H106  1  0.50000001  0.28124786  0.47793495  1
  H  H107  1  0.49999998  0.31264027  0.05652034  1
  H  H108  1  0.50000003  0.31098217  0.20956762  1
  H  H109  1  0.50000002  0.31110153  0.37259950  1
  H  H110  1  0.50000007  0.19500737  0.00233827  1
  H  H111  1  0.50000010  0.27191289  0.01687756  1
