# generated using pymatgen
data_HC3
_symmetry_space_group_name_H-M   'P 1'
_cell_length_a   10.00000000
_cell_length_b   25.62946000
_cell_length_c   14.90518240
_cell_angle_alpha   90.00000000
_cell_angle_beta   90.00000000
_cell_angle_gamma   90.00000000
_symmetry_Int_Tables_number   1
_chemical_formula_structural   HC3
_chemical_formula_sum   'H22 C66'
_cell_volume   3820.11775991
_cell_formula_units_Z   22
loop_
 _symmetry_equiv_pos_site_id
 _symmetry_equiv_pos_as_xyz
  1  'x, y, z'
loop_
 _atom_site_type_symbol
 _atom_site_label
 _atom_site_symmetry_multiplicity
 _atom_site_fract_x
 _atom_site_fract_y
 _atom_site_fract_z
 _atom_site_occupancy
  C  C0  1  0.49999925  0.82130802  0.57324118  1
  C  C1  1  0.50000082  0.81156153  0.73475140  1
  C  C2  1  0.50000177  0.80564886  0.89857170  1
  C  C3  1  0.49999856  0.19281035  0.52640954  1
  C  C4  1  0.49999902  0.19187965  0.68861385  1
  C  C5  1  0.49999900  0.18460442  0.84959524  1
  C  C6  1  0.49999855  0.21968800  0.60703262  1
  C  C7  1  0.49999869  0.21657714  0.77242036  1
  C  C8  1  0.50000086  0.20827633  0.93244710  1
  C  C9  1  0.49999810  0.27692257  0.61491952  1
  C  C10  1  0.49999841  0.27326241  0.78045722  1
  C  C11  1  0.50000236  0.26263957  0.94007442  1
  C  C12  1  0.49999837  0.30678257  0.53810286  1
  C  C13  1  0.49999809  0.30310635  0.69988996  1
  C  C14  1  0.49999970  0.29831319  0.86661660  1
  C  C15  1  0.49999560  0.36266407  0.04097305  1
  C  C16  1  0.49999702  0.36133567  0.20546837  1
  C  C17  1  0.49999812  0.36220146  0.37199793  1
  C  C18  1  0.49999873  0.36116757  0.53868476  1
  C  C19  1  0.49999874  0.35907831  0.70355159  1
  C  C20  1  0.49999892  0.35620956  0.87131183  1
  C  C21  1  0.49999756  0.38887585  0.12363661  1
  C  C22  1  0.49999869  0.38773077  0.28800723  1
  C  C23  1  0.49999919  0.38870598  0.45379404  1
  C  C24  1  0.49999910  0.38852352  0.62191503  1
  C  C25  1  0.49999906  0.38562433  0.78927833  1
  C  C26  1  0.49999808  0.38578471  0.95585503  1
  C  C27  1  0.49999989  0.44444314  0.12288901  1
  C  C28  1  0.50000059  0.44362240  0.28821254  1
  C  C29  1  0.50000058  0.44467128  0.45541713  1
  C  C30  1  0.49999981  0.44492838  0.62234433  1
  C  C31  1  0.49999934  0.44290408  0.78858719  1
  C  C32  1  0.49999926  0.44257035  0.95490432  1
  C  C33  1  0.49999984  0.47055800  0.03864392  1
  C  C34  1  0.50000116  0.47145387  0.20575734  1
  C  C35  1  0.50000140  0.47060181  0.37107565  1
  C  C36  1  0.50000059  0.47281007  0.53907556  1
  C  C37  1  0.49999981  0.47241359  0.70553422  1
  C  C38  1  0.49999949  0.47048380  0.87165730  1
  C  C39  1  0.50000057  0.52653817  0.04029110  1
  C  C40  1  0.50000219  0.52736725  0.20595716  1
  C  C41  1  0.50000291  0.52611733  0.37025496  1
  C  C42  1  0.50000139  0.52963449  0.53817268  1
  C  C43  1  0.50000022  0.52968225  0.70498762  1
  C  C44  1  0.50000004  0.52687318  0.87198827  1
  C  C45  1  0.50000157  0.55300063  0.12203126  1
  C  C46  1  0.50000331  0.55373237  0.28849220  1
  C  C47  1  0.50000318  0.55244603  0.45280942  1
  C  C48  1  0.50000062  0.55920100  0.62310430  1
  C  C49  1  0.50000025  0.55647531  0.79044317  1
  C  C50  1  0.50000043  0.55416042  0.95529444  1
  C  C51  1  0.50000033  0.61700289  0.62835314  1
  C  C52  1  0.50000071  0.61256690  0.79414759  1
  C  C53  1  0.50000075  0.60842580  0.95597723  1
  C  C54  1  0.49999940  0.65214516  0.55433278  1
  C  C55  1  0.50000064  0.64306775  0.71380756  1
  C  C56  1  0.50000093  0.63852381  0.87903361  1
  C  C57  1  0.49999932  0.70578045  0.56062321  1
  C  C58  1  0.50000050  0.69973248  0.72091620  1
  C  C59  1  0.50000106  0.69521149  0.88672344  1
  C  C60  1  0.50000003  0.73168470  0.64303818  1
  C  C61  1  0.50000075  0.72501833  0.80712342  1
  C  C62  1  0.50000177  0.72118100  0.97030566  1
  C  C63  1  0.50000005  0.78904201  0.64795319  1
  C  C64  1  0.50000110  0.78131425  0.81299631  1
  C  C65  1  0.50000199  0.77572478  0.97604149  1
  H  H66  1  0.49999906  0.86375479  0.58251249  1
  H  H67  1  0.50000138  0.85421325  0.74085627  1
  H  H68  1  0.50000223  0.84840418  0.90172979  1
  H  H69  1  0.49999907  0.15004253  0.52683927  1
  H  H70  1  0.49999960  0.14909585  0.68689757  1
  H  H71  1  0.49999909  0.14208819  0.84182140  1
  H  H72  1  0.49999870  0.80708054  0.50409894  1
  H  H73  1  0.49999793  0.21176191  0.46069708  1
  H  H74  1  0.49999874  0.28632253  0.47425842  1
  H  H75  1  0.49999068  0.32124318  0.04987015  1
  H  H76  1  0.49999567  0.31852467  0.20438560  1
  H  H77  1  0.49999645  0.31960961  0.37026059  1
  H  H78  1  0.50000183  0.59561188  0.12414254  1
  H  H79  1  0.50000397  0.59656805  0.28978078  1
  H  H80  1  0.50000492  0.59380077  0.44313054  1
  H  H81  1  0.49999816  0.63977641  0.48562462  1
  H  H82  1  0.49999859  0.72785731  0.49774039  1
  H  H83  1  0.50000215  0.18501872  -0.00587551  1
  H  H84  1  0.50000784  0.27448936  0.00917657  1
  H  H85  1  0.50000085  0.62843137  0.02015044  1
  H  H86  1  0.50000235  0.69898289  0.03287240  1
  H  H87  1  0.50000256  0.79450790  0.04211417  1
