# generated using pymatgen
data_H11C39
_symmetry_space_group_name_H-M   'P 1'
_cell_length_a   10.00000000
_cell_length_b   29.89204000
_cell_length_c   14.87811303
_cell_angle_alpha   90.00000000
_cell_angle_beta   90.00000000
_cell_angle_gamma   90.00000000
_symmetry_Int_Tables_number   1
_chemical_formula_structural   H11C39
_chemical_formula_sum   'H22 C78'
_cell_volume   4447.37149945
_cell_formula_units_Z   2
loop_
 _symmetry_equiv_pos_site_id
 _symmetry_equiv_pos_as_xyz
  1  'x, y, z'
loop_
 _atom_site_type_symbol
 _atom_site_label
 _atom_site_symmetry_multiplicity
 _atom_site_fract_x
 _atom_site_fract_y
 _atom_site_fract_z
 _atom_site_occupancy
  C  C0  1  0.49999937  0.20109262  0.53431194  1
  C  C1  1  0.50000046  0.19980037  0.69717942  1
  C  C2  1  0.49999993  0.19348184  0.85846433  1
  C  C3  1  0.50000005  0.22372776  0.61558793  1
  C  C4  1  0.50000019  0.22091918  0.78127436  1
  C  C5  1  0.49999997  0.21362528  0.94161566  1
  C  C6  1  0.50000004  0.27276280  0.62392806  1
  C  C7  1  0.50000006  0.26944007  0.78991163  1
  C  C8  1  0.50000029  0.26021868  0.94986432  1
  C  C9  1  0.50000002  0.29836567  0.54685636  1
  C  C10  1  0.50000005  0.29507735  0.70931284  1
  C  C11  1  0.50000009  0.29088853  0.87641511  1
  C  C12  1  0.49999962  0.34659286  0.05040822  1
  C  C13  1  0.50000004  0.34615501  0.21483558  1
  C  C14  1  0.50000001  0.34623582  0.38081292  1
  C  C15  1  0.49999998  0.34491893  0.54778846  1
  C  C16  1  0.50000002  0.34300150  0.71333769  1
  C  C17  1  0.49999997  0.34054320  0.88123566  1
  C  C18  1  0.50000002  0.36950491  0.13261293  1
  C  C19  1  0.50000006  0.36875546  0.29759956  1
  C  C20  1  0.49999996  0.36872225  0.46291451  1
  C  C21  1  0.49999999  0.36811171  0.63148492  1
  C  C22  1  0.49999999  0.36573628  0.79927872  1
  C  C23  1  0.49999991  0.36628264  0.96529508  1
  C  C24  1  0.50000022  0.41710618  0.13156679  1
  C  C25  1  0.50000009  0.41666869  0.29827794  1
  C  C26  1  0.49999997  0.41657588  0.46482649  1
  C  C27  1  0.49999997  0.41618758  0.63217041  1
  C  C28  1  0.49999998  0.41464790  0.79877860  1
  C  C29  1  0.50000009  0.41502790  0.96411551  1
  C  C30  1  0.50000015  0.43950851  0.04708925  1
  C  C31  1  0.50000020  0.44000315  0.21519750  1
  C  C32  1  0.50000005  0.44006650  0.38160908  1
  C  C33  1  0.49999997  0.44001380  0.54879470  1
  C  C34  1  0.49999997  0.43945909  0.71602124  1
  C  C35  1  0.50000005  0.43918663  0.88137820  1
  C  C36  1  0.50000016  0.48750653  0.04733517  1
  C  C37  1  0.50000021  0.48730206  0.21542777  1
  C  C38  1  0.50000009  0.48781778  0.38184866  1
  C  C39  1  0.49999999  0.48792799  0.54906751  1
  C  C40  1  0.49999996  0.48803948  0.71633932  1
  C  C41  1  0.50000007  0.48784853  0.88167163  1
  C  C42  1  0.50000021  0.50998355  0.13188335  1
  C  C43  1  0.50000016  0.51095668  0.29839286  1
  C  C44  1  0.50000004  0.51140240  0.46524659  1
  C  C45  1  0.49999995  0.51163889  0.63276507  1
  C  C46  1  0.49999998  0.51258719  0.79934828  1
  C  C47  1  0.50000015  0.51192921  0.96446406  1
  C  C48  1  0.50000009  0.55750638  0.13306289  1
  C  C49  1  0.50000014  0.55889218  0.29794282  1
  C  C50  1  0.50000001  0.55931173  0.46357815  1
  C  C51  1  0.49999989  0.55975635  0.63264122  1
  C  C52  1  0.49999997  0.56152943  0.80001947  1
  C  C53  1  0.50000004  0.56065544  0.96580854  1
  C  C54  1  0.49999975  0.58023828  0.05091534  1
  C  C55  1  0.50000010  0.58119135  0.21497039  1
  C  C56  1  0.50000008  0.58158787  0.38126852  1
  C  C57  1  0.49999990  0.58311071  0.54896538  1
  C  C58  1  0.49999985  0.58474943  0.71474299  1
  C  C59  1  0.50000008  0.58659134  0.88204324  1
  C  C60  1  0.49999982  0.62961592  0.54901909  1
  C  C61  1  0.49999974  0.63276975  0.71169352  1
  C  C62  1  0.50000018  0.63611993  0.87816620  1
  C  C63  1  0.49999972  0.65515159  0.62679899  1
  C  C64  1  0.49999983  0.65862898  0.79275455  1
  C  C65  1  0.50000077  0.66608118  0.95279307  1
  C  C66  1  0.49999982  0.70378586  0.62019033  1
  C  C67  1  0.49999985  0.70717543  0.78637534  1
  C  C68  1  0.50000036  0.71205308  0.94685472  1
  C  C69  1  0.49999964  0.72637065  0.53683946  1
  C  C70  1  0.49999990  0.72906992  0.70038598  1
  C  C71  1  0.49999989  0.73437560  0.86464986  1
  C  C72  1  0.49999971  0.77314570  0.53199723  1
  C  C73  1  0.50000001  0.77736249  0.69539783  1
  C  C74  1  0.49999998  0.78349379  0.86078390  1
  C  C75  1  0.49999996  0.79854037  0.60996343  1
  C  C76  1  0.50000014  0.80307941  0.77413332  1
  C  C77  1  0.49999999  0.81070482  0.93630627  1
  H  H78  1  0.49999943  0.16443518  0.53366621  1
  H  H79  1  0.50000065  0.16309265  0.69516798  1
  H  H80  1  0.49999982  0.15704016  0.85055165  1
  H  H81  1  0.50000003  0.83520333  0.60726707  1
  H  H82  1  0.50000027  0.83965387  0.76838132  1
  H  H83  1  0.50000027  0.84715529  0.92815972  1
  H  H84  1  0.49999883  0.21780530  0.46893112  1
  H  H85  1  0.50000001  0.28102816  0.48265323  1
  H  H86  1  0.49999879  0.31104640  0.05907518  1
  H  H87  1  0.50000002  0.30943936  0.21414752  1
  H  H88  1  0.50000007  0.30973371  0.37804653  1
  H  H89  1  0.49999896  0.61565100  0.06020877  1
  H  H90  1  0.50000011  0.61789067  0.21372426  1
  H  H91  1  0.50000010  0.61812087  0.37862938  1
  H  H92  1  0.49999985  0.64693579  0.48488185  1
  H  H93  1  0.49999925  0.70757770  0.47383371  1
  H  H94  1  0.49999943  0.78946871  0.46608328  1
  H  H95  1  0.49999987  0.19355655  0.00326580  1
  H  H96  1  0.50000094  0.27022570  0.01925261  1
  H  H97  1  0.50000213  0.65583221  0.02189356  1
  H  H98  1  0.50000070  0.73080260  0.00997691  1
  H  H99  1  0.49999952  0.79801163  0.00519814  1
