# generated using pymatgen
data_H2C9
_symmetry_space_group_name_H-M   'P 1'
_cell_length_a   10.00000000
_cell_length_b   25.62946000
_cell_length_c   14.83270524
_cell_angle_alpha   90.00000000
_cell_angle_beta   90.00000000
_cell_angle_gamma   90.00000000
_symmetry_Int_Tables_number   1
_chemical_formula_structural   H2C9
_chemical_formula_sum   'H16 C72'
_cell_volume   3801.54225601
_cell_formula_units_Z   8
loop_
 _symmetry_equiv_pos_site_id
 _symmetry_equiv_pos_as_xyz
  1  'x, y, z'
loop_
 _atom_site_type_symbol
 _atom_site_label
 _atom_site_symmetry_multiplicity
 _atom_site_fract_x
 _atom_site_fract_y
 _atom_site_fract_z
 _atom_site_occupancy
  C  C0  1  0.49999880  0.23458409  0.53251018  1
  C  C1  1  0.49999935  0.23473219  0.69504023  1
  C  C2  1  0.50000021  0.22755861  0.85676910  1
  C  C3  1  0.49999929  0.26222847  0.61277557  1
  C  C4  1  0.49999998  0.25943611  0.77914476  1
  C  C5  1  0.50000040  0.25118710  0.94005473  1
  C  C6  1  0.49999967  0.31946779  0.61989810  1
  C  C7  1  0.50000033  0.31597392  0.78693433  1
  C  C8  1  0.50000034  0.30555581  0.94763347  1
  C  C9  1  0.49999924  0.34918454  0.54220575  1
  C  C10  1  0.50000041  0.34555051  0.70557778  1
  C  C11  1  0.50000031  0.34109144  0.87361157  1
  C  C12  1  0.49999963  0.40666826  0.04723868  1
  C  C13  1  0.49999876  0.40647968  0.21110895  1
  C  C14  1  0.49999935  0.40623093  0.37618165  1
  C  C15  1  0.50000005  0.40359502  0.54310056  1
  C  C16  1  0.50000064  0.40139132  0.70928974  1
  C  C17  1  0.50000016  0.39895590  0.87786714  1
  C  C18  1  0.49999938  0.43378775  0.12917422  1
  C  C19  1  0.49999936  0.43309799  0.29344543  1
  C  C20  1  0.49999998  0.43200699  0.45854647  1
  C  C21  1  0.50000063  0.43050330  0.62706256  1
  C  C22  1  0.50000027  0.42797924  0.79540105  1
  C  C23  1  0.49999988  0.42926900  0.96177513  1
  C  C24  1  0.49999983  0.48927565  0.12826252  1
  C  C25  1  0.50000007  0.48906239  0.29402470  1
  C  C26  1  0.50000029  0.48789690  0.46034454  1
  C  C27  1  0.50000035  0.48651373  0.62760230  1
  C  C28  1  0.49999972  0.48484066  0.79479969  1
  C  C29  1  0.49999955  0.48599702  0.96070623  1
  C  C30  1  0.49999961  0.51499745  0.04369145  1
  C  C31  1  0.50000008  0.51675556  0.21117085  1
  C  C32  1  0.50000020  0.51601935  0.37752174  1
  C  C33  1  0.50000018  0.51478708  0.54439484  1
  C  C34  1  0.49999975  0.51339885  0.71154608  1
  C  C35  1  0.49999919  0.51351234  0.87755133  1
  C  C36  1  0.49999930  0.57091108  0.04383573  1
  C  C37  1  0.49999978  0.57222089  0.21111346  1
  C  C38  1  0.49999986  0.57177839  0.37779760  1
  C  C39  1  0.49999968  0.57069313  0.54454940  1
  C  C40  1  0.49999932  0.56969928  0.71135624  1
  C  C41  1  0.49999892  0.56978932  0.87755020  1
  C  C42  1  0.49999945  0.59903754  0.12717146  1
  C  C43  1  0.49999959  0.59956070  0.29462407  1
  C  C44  1  0.49999964  0.59890095  0.46141907  1
  C  C45  1  0.49999945  0.59790775  0.62820793  1
  C  C46  1  0.49999918  0.59763665  0.79442240  1
  C  C47  1  0.49999918  0.59808022  0.96041900  1
  C  C48  1  0.49999965  0.65489745  0.12740244  1
  C  C49  1  0.49999951  0.65531506  0.29455211  1
  C  C50  1  0.49999970  0.65481850  0.46134940  1
  C  C51  1  0.49999972  0.65401051  0.62806997  1
  C  C52  1  0.49999982  0.65380109  0.79443596  1
  C  C53  1  0.49999987  0.65414843  0.96071934  1
  C  C54  1  0.50000013  0.68207670  0.04392812  1
  C  C55  1  0.49999987  0.68256159  0.21086180  1
  C  C56  1  0.49999985  0.68262874  0.37805905  1
  C  C57  1  0.50000007  0.68199727  0.54491222  1
  C  C58  1  0.50000001  0.68155698  0.71132345  1
  C  C59  1  0.50000043  0.68161411  0.87753849  1
  C  C60  1  0.50000070  0.73846005  0.04406461  1
  C  C61  1  0.50000089  0.73893665  0.21091234  1
  C  C62  1  0.50000082  0.73900377  0.37800304  1
  C  C63  1  0.50000087  0.73843348  0.54489524  1
  C  C64  1  0.50000065  0.73806918  0.71137383  1
  C  C65  1  0.50000095  0.73807803  0.87764508  1
  C  C66  1  0.50000115  0.76525002  0.12729604  1
  C  C67  1  0.50000158  0.76549162  0.29441321  1
  C  C68  1  0.50000121  0.76529173  0.46166727  1
  C  C69  1  0.50000116  0.76487253  0.62829023  1
  C  C70  1  0.50000094  0.76471929  0.79452672  1
  C  C71  1  0.50000068  0.76488856  0.96072163  1
  H  H72  1  0.49999819  0.19183982  0.53485558  1
  H  H73  1  0.49999886  0.19195966  0.69339787  1
  H  H74  1  0.50000020  0.18507174  0.84913543  1
  H  H75  1  0.50000161  0.80803498  0.12673902  1
  H  H76  1  0.50000266  0.80826759  0.29431449  1
  H  H77  1  0.50000167  0.80808473  0.46216605  1
  H  H78  1  0.50000200  0.80767517  0.62866837  1
  H  H79  1  0.50000096  0.80753021  0.79462400  1
  H  H80  1  0.50000011  0.80767927  0.96036049  1
  H  H81  1  0.49999929  0.25248341  0.46562178  1
  H  H82  1  0.49999832  0.32874079  0.47790988  1
  H  H83  1  0.49999980  0.36530195  0.05688541  1
  H  H84  1  0.49999807  0.36368146  0.21049271  1
  H  H85  1  0.49999895  0.36367171  0.37258365  1
  H  H86  1  0.50000048  0.22773454  0.00187065  1
  H  H87  1  0.50000004  0.31763606  0.01698306  1
