# generated using pymatgen
data_H11C28
_symmetry_space_group_name_H-M   'P 1'
_cell_length_a   10.00000000
_cell_length_b   21.36688000
_cell_length_c   19.88281921
_cell_angle_alpha   90.00000000
_cell_angle_beta   90.00000000
_cell_angle_gamma   90.00000000
_symmetry_Int_Tables_number   1
_chemical_formula_structural   H11C28
_chemical_formula_sum   'H22 C56'
_cell_volume   4248.33812133
_cell_formula_units_Z   2
loop_
 _symmetry_equiv_pos_site_id
 _symmetry_equiv_pos_as_xyz
  1  'x, y, z'
loop_
 _atom_site_type_symbol
 _atom_site_label
 _atom_site_symmetry_multiplicity
 _atom_site_fract_x
 _atom_site_fract_y
 _atom_site_fract_z
 _atom_site_occupancy
  C  C0  1  0.50000000  0.22962210  0.50065385  1
  C  C1  1  0.50000000  0.23319699  0.62210872  1
  C  C2  1  0.50000000  0.23143901  0.74398758  1
  C  C3  1  0.50000000  0.22344004  0.86472252  1
  C  C4  1  0.50000000  0.26438308  0.55938823  1
  C  C5  1  0.50000000  0.26493669  0.68384844  1
  C  C6  1  0.50000000  0.26138908  0.80663479  1
  C  C7  1  0.50000000  0.25214927  0.92653306  1
  C  C8  1  0.50000000  0.33342228  0.56177023  1
  C  C9  1  0.50000000  0.33258031  0.68682136  1
  C  C10  1  0.50000000  0.32909287  0.81114057  1
  C  C11  1  0.50000000  0.31753076  0.93113149  1
  C  C12  1  0.50000000  0.36818066  0.50299547  1
  C  C13  1  0.50000000  0.36585457  0.62502892  1
  C  C14  1  0.50000000  0.36424313  0.74996054  1
  C  C15  1  0.50000000  0.35955781  0.87569011  1
  C  C16  1  0.50000000  0.43874410  0.00571380  1
  C  C17  1  0.50000000  0.43814911  0.12880207  1
  C  C18  1  0.50000000  0.43774631  0.25226984  1
  C  C19  1  0.50000000  0.43716866  0.37636881  1
  C  C20  1  0.50000000  0.43392157  0.50192481  1
  C  C21  1  0.50000000  0.43263273  0.62630779  1
  C  C22  1  0.50000000  0.43156002  0.75229528  1
  C  C23  1  0.50000000  0.42916944  0.87875166  1
  C  C24  1  0.50000000  0.47062647  0.06751824  1
  C  C25  1  0.50000000  0.47012589  0.19044838  1
  C  C26  1  0.50000000  0.46922263  0.31388071  1
  C  C27  1  0.50000000  0.46777865  0.43805869  1
  C  C28  1  0.50000000  0.46657609  0.56412169  1
  C  C29  1  0.50000000  0.46459440  0.68994367  1
  C  C30  1  0.50000000  0.46375753  0.81701897  1
  C  C31  1  0.50000000  0.46551267  0.94149743  1
  C  C32  1  0.50000000  0.53787238  0.06678991  1
  C  C33  1  0.50000000  0.53871073  0.19039494  1
  C  C34  1  0.50000000  0.53722491  0.31434733  1
  C  C35  1  0.50000000  0.53581382  0.43878486  1
  C  C36  1  0.50000000  0.53392581  0.56459937  1
  C  C37  1  0.50000000  0.53173755  0.69015021  1
  C  C38  1  0.50000000  0.53269034  0.81681668  1
  C  C39  1  0.50000000  0.53439432  0.94077413  1
  C  C40  1  0.50000000  0.56614607  0.00275434  1
  C  C41  1  0.50000000  0.57066335  0.12816245  1
  C  C42  1  0.50000000  0.56991231  0.25298517  1
  C  C43  1  0.50000000  0.56785383  0.37742546  1
  C  C44  1  0.50000000  0.56820705  0.50290398  1
  C  C45  1  0.50000000  0.56552967  0.62757085  1
  C  C46  1  0.50000000  0.56391746  0.75235237  1
  C  C47  1  0.50000000  0.56839356  0.87793793  1
  C  C48  1  0.50000000  0.63489490  0.50575005  1
  C  C49  1  0.50000000  0.63281102  0.62791029  1
  C  C50  1  0.50000000  0.63133555  0.75043195  1
  C  C51  1  0.50000000  0.63826118  0.87504989  1
  C  C52  1  0.50000000  0.66613733  0.56584981  1
  C  C53  1  0.50000000  0.66417415  0.68896547  1
  C  C54  1  0.50000000  0.66514269  0.80968632  1
  C  C55  1  0.50000000  0.68533086  0.92394747  1
  H  H56  1  0.50000000  0.17838148  0.50359816  1
  H  H57  1  0.50000000  0.18186632  0.62268978  1
  H  H58  1  0.50000000  0.18016204  0.74243392  1
  H  H59  1  0.50000000  0.17247227  0.85908780  1
  H  H60  1  0.50000000  0.71740531  0.56731983  1
  H  H61  1  0.50000000  0.71549066  0.68982978  1
  H  H62  1  0.50000000  0.71632202  0.80591664  1
  H  H63  1  0.50000000  0.73359426  0.90507626  1
  H  H64  1  0.50000000  0.25032835  0.45037256  1
  H  H65  1  0.50000000  0.22448594  0.97296027  1
  H  H66  1  0.50000000  0.33266164  0.98263147  1
  H  H67  1  0.50000000  0.34285327  0.45545184  1
  H  H68  1  0.50000000  0.38909245  0.01294167  1
  H  H69  1  0.50000000  0.38674545  0.12865792  1
  H  H70  1  0.50000000  0.38641190  0.25143778  1
  H  H71  1  0.50000000  0.38600875  0.37388635  1
  H  H72  1  0.50000000  0.61649109  0.00299493  1
  H  H73  1  0.50000000  0.62204473  0.12803430  1
  H  H74  1  0.50000000  0.62127033  0.25363382  1
  H  H75  1  0.50000000  0.61902566  0.37618820  1
  H  H76  1  0.50000000  0.66218003  0.45926412  1
  H  H77  1  0.50000000  0.68264667  0.97841365  1
