# generated using pymatgen
data_HC4
_symmetry_space_group_name_H-M   'P 1'
_cell_length_a   10.00000000
_cell_length_b   29.89204000
_cell_length_c   19.81421773
_cell_angle_alpha   90.00000000
_cell_angle_beta   90.00000000
_cell_angle_gamma   90.00000000
_symmetry_Int_Tables_number   1
_chemical_formula_structural   HC4
_chemical_formula_sum   'H26 C104'
_cell_volume   5922.87389027
_cell_formula_units_Z   26
loop_
 _symmetry_equiv_pos_site_id
 _symmetry_equiv_pos_as_xyz
  1  'x, y, z'
loop_
 _atom_site_type_symbol
 _atom_site_label
 _atom_site_symmetry_multiplicity
 _atom_site_fract_x
 _atom_site_fract_y
 _atom_site_fract_z
 _atom_site_occupancy
  C  C0  1  0.50000000  0.20025422  0.49869595  1
  C  C1  1  0.50000000  0.20093917  0.62098527  1
  C  C2  1  0.50000000  0.19801972  0.74425654  1
  C  C3  1  0.50000000  0.19419462  0.86839490  1
  C  C4  1  0.50000000  0.22419231  0.55856410  1
  C  C5  1  0.50000000  0.22263544  0.68381855  1
  C  C6  1  0.50000000  0.21922621  0.80747198  1
  C  C7  1  0.50000000  0.21599115  0.93013022  1
  C  C8  1  0.50000000  0.27342234  0.56166190  1
  C  C9  1  0.50000000  0.27110967  0.68669504  1
  C  C10  1  0.50000000  0.26741930  0.81036839  1
  C  C11  1  0.50000000  0.26286576  0.93311959  1
  C  C12  1  0.50000000  0.29938967  0.50280507  1
  C  C13  1  0.50000000  0.29602452  0.62520024  1
  C  C14  1  0.50000000  0.29340635  0.74958858  1
  C  C15  1  0.50000000  0.28911870  0.87397567  1
  C  C16  1  0.50000000  0.34570131  0.50533452  1
  C  C17  1  0.50000000  0.34401989  0.62806578  1
  C  C18  1  0.50000000  0.34178337  0.75224373  1
  C  C19  1  0.50000000  0.33771226  0.87557275  1
  C  C20  1  0.50000000  0.36897379  0.56713422  1
  C  C21  1  0.50000000  0.36697743  0.69186402  1
  C  C22  1  0.50000000  0.36439486  0.81598038  1
  C  C23  1  0.50000000  0.36057435  0.93679898  1
  C  C24  1  0.50000000  0.41749257  0.57035678  1
  C  C25  1  0.50000000  0.41518844  0.69489892  1
  C  C26  1  0.50000000  0.41291300  0.81940614  1
  C  C27  1  0.50000000  0.40649674  0.93989374  1
  C  C28  1  0.50000000  0.44268665  0.51143769  1
  C  C29  1  0.50000000  0.44027585  0.63379250  1
  C  C30  1  0.50000000  0.43823296  0.75810360  1
  C  C31  1  0.50000000  0.43584383  0.88343867  1
  C  C32  1  0.50000000  0.49181833  0.01396504  1
  C  C33  1  0.50000000  0.49114468  0.13686938  1
  C  C34  1  0.50000000  0.49075343  0.26145721  1
  C  C35  1  0.50000000  0.49122003  0.38545051  1
  C  C36  1  0.50000000  0.48925565  0.51086400  1
  C  C37  1  0.50000000  0.48813673  0.63533062  1
  C  C38  1  0.50000000  0.48646762  0.76050888  1
  C  C39  1  0.50000000  0.48504295  0.88656100  1
  C  C40  1  0.50000000  0.51478555  0.07560414  1
  C  C41  1  0.50000000  0.51350393  0.19925055  1
  C  C42  1  0.50000000  0.51396985  0.32301744  1
  C  C43  1  0.50000000  0.51339207  0.44712235  1
  C  C44  1  0.50000000  0.51273880  0.57339548  1
  C  C45  1  0.50000000  0.51139370  0.69879933  1
  C  C46  1  0.50000000  0.50977385  0.82444149  1
  C  C47  1  0.50000000  0.51088382  0.94972593  1
  C  C48  1  0.50000000  0.56233822  0.07456142  1
  C  C49  1  0.50000000  0.56177909  0.19907320  1
  C  C50  1  0.50000000  0.56207207  0.32345437  1
  C  C51  1  0.50000000  0.56141609  0.44826503  1
  C  C52  1  0.50000000  0.56058996  0.57371229  1
  C  C53  1  0.50000000  0.55951686  0.69904710  1
  C  C54  1  0.50000000  0.55855783  0.82418084  1
  C  C55  1  0.50000000  0.55957754  0.94868244  1
  C  C56  1  0.50000000  0.58434458  0.01098987  1
  C  C57  1  0.50000000  0.58549665  0.13696619  1
  C  C58  1  0.50000000  0.58553820  0.26105354  1
  C  C59  1  0.50000000  0.58535632  0.38592562  1
  C  C60  1  0.50000000  0.58469116  0.51102848  1
  C  C61  1  0.50000000  0.58372520  0.63649906  1
  C  C62  1  0.50000000  0.58302111  0.76204390  1
  C  C63  1  0.50000000  0.58316251  0.88641417  1
  C  C64  1  0.50000000  0.63232330  0.01096985  1
  C  C65  1  0.50000000  0.63306962  0.13667128  1
  C  C66  1  0.50000000  0.63339947  0.26100026  1
  C  C67  1  0.50000000  0.63331959  0.38598514  1
  C  C68  1  0.50000000  0.63259869  0.51105329  1
  C  C69  1  0.50000000  0.63177387  0.63642838  1
  C  C70  1  0.50000000  0.63149080  0.76201642  1
  C  C71  1  0.50000000  0.63158065  0.88640296  1
  C  C72  1  0.50000000  0.65565684  0.07377143  1
  C  C73  1  0.50000000  0.65698715  0.19880676  1
  C  C74  1  0.50000000  0.65683339  0.32351621  1
  C  C75  1  0.50000000  0.65673195  0.44865840  1
  C  C76  1  0.50000000  0.65582270  0.57396999  1
  C  C77  1  0.50000000  0.65511421  0.69922891  1
  C  C78  1  0.50000000  0.65589392  0.82432556  1
  C  C79  1  0.50000000  0.65595096  0.94827646  1
  C  C80  1  0.50000000  0.70354855  0.07415588  1
  C  C81  1  0.50000000  0.70529112  0.19863443  1
  C  C82  1  0.50000000  0.70501194  0.32325167  1
  C  C83  1  0.50000000  0.70492465  0.44804529  1
  C  C84  1  0.50000000  0.70392185  0.57369257  1
  C  C85  1  0.50000000  0.70309804  0.69914064  1
  C  C86  1  0.50000000  0.70453050  0.82492949  1
  C  C87  1  0.50000000  0.70444831  0.94895989  1
  C  C88  1  0.50000000  0.72583217  0.01178390  1
  C  C89  1  0.50000000  0.72727396  0.13566593  1
  C  C90  1  0.50000000  0.72802921  0.26112827  1
  C  C91  1  0.50000000  0.72748543  0.38608052  1
  C  C92  1  0.50000000  0.72850649  0.51179897  1
  C  C93  1  0.50000000  0.72712704  0.63644735  1
  C  C94  1  0.50000000  0.72684237  0.76094417  1
  C  C95  1  0.50000000  0.72945155  0.88677322  1
  C  C96  1  0.50000000  0.77611522  0.51404183  1
  C  C97  1  0.50000000  0.77525275  0.63644303  1
  C  C98  1  0.50000000  0.77492224  0.75935293  1
  C  C99  1  0.50000000  0.77919214  0.88474707  1
  C  C100  1  0.50000000  0.79887191  0.57404183  1
  C  C101  1  0.50000000  0.79813604  0.69756996  1
  C  C102  1  0.50000000  0.79876985  0.81940822  1
  C  C103  1  0.50000000  0.81224558  0.93487826  1
  H  H104  1  0.50000000  0.16359965  0.50001942  1
  H  H105  1  0.50000000  0.16425007  0.61995236  1
  H  H106  1  0.50000000  0.16136553  0.74199855  1
  H  H107  1  0.50000000  0.15753403  0.86599293  1
  H  H108  1  0.50000000  0.83555780  0.57480354  1
  H  H109  1  0.50000000  0.83485488  0.69784409  1
  H  H110  1  0.50000000  0.83535340  0.81604982  1
  H  H111  1  0.50000000  0.84697826  0.91708382  1
  H  H112  1  0.50000000  0.21599560  0.44891016  1
  H  H113  1  0.50000000  0.19653555  0.97700257  1
  H  H114  1  0.50000000  0.27870398  0.98283767  1
  H  H115  1  0.50000000  0.28311406  0.45341040  1
  H  H116  1  0.50000000  0.36378415  0.45740638  1
  H  H117  1  0.50000000  0.34236416  0.98462581  1
  H  H118  1  0.50000000  0.41764809  0.99122392  1
  H  H119  1  0.50000000  0.42514620  0.46340361  1
  H  H120  1  0.50000000  0.45650274  0.02195531  1
  H  H121  1  0.50000000  0.45446593  0.13599419  1
  H  H122  1  0.50000000  0.45405292  0.26164611  1
  H  H123  1  0.50000000  0.45470056  0.38312362  1
  H  H124  1  0.50000000  0.76177586  0.01421697  1
  H  H125  1  0.50000000  0.76395866  0.13424226  1
  H  H126  1  0.50000000  0.76472214  0.26124242  1
  H  H127  1  0.50000000  0.76407209  0.38456798  1
  H  H128  1  0.50000000  0.79532618  0.46712519  1
  H  H129  1  0.50000000  0.80970063  0.98949882  1
