# generated using pymatgen
data_HC3
_symmetry_space_group_name_H-M   'P 1'
_cell_length_a   10.00000000
_cell_length_b   29.89204000
_cell_length_c   19.93584482
_cell_angle_alpha   90.00000000
_cell_angle_beta   90.00000000
_cell_angle_gamma   90.00000000
_symmetry_Int_Tables_number   1
_chemical_formula_structural   HC3
_chemical_formula_sum   'H32 C96'
_cell_volume   5959.23070689
_cell_formula_units_Z   32
loop_
 _symmetry_equiv_pos_site_id
 _symmetry_equiv_pos_as_xyz
  1  'x, y, z'
loop_
 _atom_site_type_symbol
 _atom_site_label
 _atom_site_symmetry_multiplicity
 _atom_site_fract_x
 _atom_site_fract_y
 _atom_site_fract_z
 _atom_site_occupancy
  C  C0  1  0.50000000  0.84004193  0.50895667  1
  C  C1  1  0.50000000  0.83650889  0.63021774  1
  C  C2  1  0.50000000  0.83672191  0.75300962  1
  C  C3  1  0.50000000  0.83794116  0.87663146  1
  C  C4  1  0.50000000  0.16388280  0.50819735  1
  C  C5  1  0.50000000  0.16587364  0.62922422  1
  C  C6  1  0.50000000  0.16397124  0.75022068  1
  C  C7  1  0.50000000  0.15726179  0.87013242  1
  C  C8  1  0.50000000  0.18846661  0.56706295  1
  C  C9  1  0.50000000  0.18844128  0.69081687  1
  C  C10  1  0.50000000  0.18498817  0.81284605  1
  C  C11  1  0.50000000  0.17740776  0.93198303  1
  C  C12  1  0.50000000  0.23773822  0.57037889  1
  C  C13  1  0.50000000  0.23678900  0.69454837  1
  C  C14  1  0.50000000  0.23345896  0.81789909  1
  C  C15  1  0.50000000  0.22404318  0.93704090  1
  C  C16  1  0.50000000  0.26257466  0.51188079  1
  C  C17  1  0.50000000  0.26092871  0.63346257  1
  C  C18  1  0.50000000  0.25924636  0.75753559  1
  C  C19  1  0.50000000  0.25473933  0.88242370  1
  C  C20  1  0.50000000  0.30858393  0.01369092  1
  C  C21  1  0.50000000  0.30668479  0.13877357  1
  C  C22  1  0.50000000  0.30861412  0.26261910  1
  C  C23  1  0.50000000  0.31028980  0.38614092  1
  C  C24  1  0.50000000  0.30937277  0.51101786  1
  C  C25  1  0.50000000  0.30873110  0.63522561  1
  C  C26  1  0.50000000  0.30748093  0.76054548  1
  C  C27  1  0.50000000  0.30438347  0.88634897  1
  C  C28  1  0.50000000  0.32943853  0.07713172  1
  C  C29  1  0.50000000  0.33048983  0.19997805  1
  C  C30  1  0.50000000  0.33230968  0.32331362  1
  C  C31  1  0.50000000  0.33299004  0.44705246  1
  C  C32  1  0.50000000  0.33284705  0.57328380  1
  C  C33  1  0.50000000  0.33191871  0.69871323  1
  C  C34  1  0.50000000  0.33008790  0.82515319  1
  C  C35  1  0.50000000  0.32903896  0.95001735  1
  C  C36  1  0.50000000  0.37713953  0.07678680  1
  C  C37  1  0.50000000  0.37954223  0.19926893  1
  C  C38  1  0.50000000  0.38091053  0.32276228  1
  C  C39  1  0.50000000  0.38142966  0.44694976  1
  C  C40  1  0.50000000  0.38074765  0.57380882  1
  C  C41  1  0.50000000  0.38006499  0.69923918  1
  C  C42  1  0.50000000  0.37957002  0.82538517  1
  C  C43  1  0.50000000  0.37831984  0.95014900  1
  C  C44  1  0.50000000  0.39801241  0.01375969  1
  C  C45  1  0.50000000  0.40155163  0.13684727  1
  C  C46  1  0.50000000  0.40309934  0.26077696  1
  C  C47  1  0.50000000  0.40363583  0.38549890  1
  C  C48  1  0.50000000  0.40474086  0.51177795  1
  C  C49  1  0.50000000  0.40417587  0.63650284  1
  C  C50  1  0.50000000  0.40372452  0.76163271  1
  C  C51  1  0.50000000  0.40409199  0.88703423  1
  C  C52  1  0.50000000  0.45134415  0.51402017  1
  C  C53  1  0.50000000  0.45209328  0.63617999  1
  C  C54  1  0.50000000  0.45211782  0.75991320  1
  C  C55  1  0.50000000  0.45329147  0.88428808  1
  C  C56  1  0.50000000  0.47569114  0.57364957  1
  C  C57  1  0.50000000  0.47627003  0.69770938  1
  C  C58  1  0.50000000  0.47684885  0.82117047  1
  C  C59  1  0.50000000  0.48217996  0.94084451  1
  C  C60  1  0.50000000  0.52426562  0.57205134  1
  C  C61  1  0.50000000  0.52458402  0.69582082  1
  C  C62  1  0.50000000  0.52537658  0.81872031  1
  C  C63  1  0.50000000  0.52791163  0.93891830  1
  C  C64  1  0.50000000  0.54855827  0.51135976  1
  C  C65  1  0.50000000  0.54854813  0.63326728  1
  C  C66  1  0.50000000  0.54918406  0.75636270  1
  C  C67  1  0.50000000  0.55115325  0.87847010  1
  C  C68  1  0.50000000  0.59480405  0.51020327  1
  C  C69  1  0.50000000  0.59667692  0.63198783  1
  C  C70  1  0.50000000  0.59752113  0.75531227  1
  C  C71  1  0.50000000  0.59928189  0.87846056  1
  C  C72  1  0.50000000  0.62022589  0.56969729  1
  C  C73  1  0.50000000  0.62118430  0.69358620  1
  C  C74  1  0.50000000  0.62248491  0.81656069  1
  C  C75  1  0.50000000  0.62394888  0.93871826  1
  C  C76  1  0.50000000  0.66895732  0.56855758  1
  C  C77  1  0.50000000  0.66942050  0.69269029  1
  C  C78  1  0.50000000  0.67035641  0.81627454  1
  C  C79  1  0.50000000  0.67012535  0.93850140  1
  C  C80  1  0.50000000  0.69369171  0.50833653  1
  C  C81  1  0.50000000  0.69320285  0.63019215  1
  C  C82  1  0.50000000  0.69373237  0.75379827  1
  C  C83  1  0.50000000  0.69441306  0.87812139  1
  C  C84  1  0.50000000  0.74018301  0.50803977  1
  C  C85  1  0.50000000  0.74131881  0.62973805  1
  C  C86  1  0.50000000  0.74180565  0.75355555  1
  C  C87  1  0.50000000  0.74302623  0.87813654  1
  C  C88  1  0.50000000  0.76518116  0.56759558  1
  C  C89  1  0.50000000  0.76511554  0.69200799  1
  C  C90  1  0.50000000  0.76601482  0.81564862  1
  C  C91  1  0.50000000  0.76810902  0.93793760  1
  C  C92  1  0.50000000  0.81455254  0.56701197  1
  C  C93  1  0.50000000  0.81356051  0.69162078  1
  C  C94  1  0.50000000  0.81419515  0.81492474  1
  C  C95  1  0.50000000  0.81499129  0.93707071  1
  H  H96  1  0.50000000  0.87664333  0.51264974  1
  H  H97  1  0.50000000  0.87319844  0.63107758  1
  H  H98  1  0.50000000  0.87340617  0.75252027  1
  H  H99  1  0.50000000  0.87459695  0.87558888  1
  H  H100  1  0.50000000  0.12725304  0.51092650  1
  H  H101  1  0.50000000  0.12917310  0.62969861  1
  H  H102  1  0.50000000  0.12733407  0.74799212  1
  H  H103  1  0.50000000  0.12086988  0.86382786  1
  H  H104  1  0.50000000  0.82577572  0.45847454  1
  H  H105  1  0.50000000  0.17882075  0.45815864  1
  H  H106  1  0.50000000  0.15759911  0.97825415  1
  H  H107  1  0.50000000  0.23407628  0.98860732  1
  H  H108  1  0.50000000  0.24447234  0.46451036  1
  H  H109  1  0.50000000  0.27305239  0.01904062  1
  H  H110  1  0.50000000  0.26995133  0.14006841  1
  H  H111  1  0.50000000  0.27190518  0.26375593  1
  H  H112  1  0.50000000  0.27372982  0.38440577  1
  H  H113  1  0.50000000  0.43327904  0.02057875  1
  H  H114  1  0.50000000  0.43828290  0.13514761  1
  H  H115  1  0.50000000  0.43983567  0.25956970  1
  H  H116  1  0.50000000  0.44024276  0.38326451  1
  H  H117  1  0.50000000  0.46963028  0.46681906  1
  H  H118  1  0.50000000  0.47110467  0.99170695  1
  H  H119  1  0.50000000  0.54563175  0.98681784  1
  H  H120  1  0.50000000  0.53109375  0.46318217  1
  H  H121  1  0.50000000  0.61151710  0.46144952  1
  H  H122  1  0.50000000  0.60691514  0.98714721  1
  H  H123  1  0.50000000  0.68758392  0.98670169  1
  H  H124  1  0.50000000  0.67646719  0.45995143  1
  H  H125  1  0.50000000  0.75753977  0.45971127  1
  H  H126  1  0.50000000  0.75112866  0.98648636  1
  H  H127  1  0.50000000  0.83336254  0.98465702  1
