# generated using pymatgen
data_H15C52
_symmetry_space_group_name_H-M   'P 1'
_cell_length_a   10.00000000
_cell_length_b   29.89204000
_cell_length_c   19.86776799
_cell_angle_alpha   90.00000000
_cell_angle_beta   90.00000000
_cell_angle_gamma   90.00000000
_symmetry_Int_Tables_number   1
_chemical_formula_structural   H15C52
_chemical_formula_sum   'H30 C104'
_cell_volume   5938.88115493
_cell_formula_units_Z   2
loop_
 _symmetry_equiv_pos_site_id
 _symmetry_equiv_pos_as_xyz
  1  'x, y, z'
loop_
 _atom_site_type_symbol
 _atom_site_label
 _atom_site_symmetry_multiplicity
 _atom_site_fract_x
 _atom_site_fract_y
 _atom_site_fract_z
 _atom_site_occupancy
  C  C0  1  0.50000000  0.84606001  0.53221418  1
  C  C1  1  0.50000000  0.83939277  0.65394255  1
  C  C2  1  0.50000000  0.83568984  0.77710513  1
  C  C3  1  0.50000000  0.83285602  0.90093555  1
  C  C4  1  0.50000000  0.16536916  0.49676780  1
  C  C5  1  0.50000000  0.16593347  0.61887524  1
  C  C6  1  0.50000000  0.16411167  0.74053388  1
  C  C7  1  0.50000000  0.15751006  0.86094047  1
  C  C8  1  0.50000000  0.18889499  0.55680983  1
  C  C9  1  0.50000000  0.18843485  0.68080213  1
  C  C10  1  0.50000000  0.18518174  0.80339735  1
  C  C11  1  0.50000000  0.17758612  0.92310836  1
  C  C12  1  0.50000000  0.23811982  0.56085748  1
  C  C13  1  0.50000000  0.23680830  0.68472143  1
  C  C14  1  0.50000000  0.23357467  0.80857911  1
  C  C15  1  0.50000000  0.22421887  0.92845061  1
  C  C16  1  0.50000000  0.26311371  0.50273201  1
  C  C17  1  0.50000000  0.26137973  0.62392846  1
  C  C18  1  0.50000000  0.25924246  0.74780218  1
  C  C19  1  0.50000000  0.25476713  0.87343179  1
  C  C20  1  0.50000000  0.30959245  0.00454974  1
  C  C21  1  0.50000000  0.30843832  0.12789777  1
  C  C22  1  0.50000000  0.30803794  0.25273628  1
  C  C23  1  0.50000000  0.30997069  0.37731693  1
  C  C24  1  0.50000000  0.30984867  0.50227099  1
  C  C25  1  0.50000000  0.30927242  0.62570060  1
  C  C26  1  0.50000000  0.30734065  0.75052294  1
  C  C27  1  0.50000000  0.30428602  0.87700834  1
  C  C28  1  0.50000000  0.33208581  0.06661533  1
  C  C29  1  0.50000000  0.33070850  0.19041880  1
  C  C30  1  0.50000000  0.33152005  0.31408206  1
  C  C31  1  0.50000000  0.33302893  0.43849890  1
  C  C32  1  0.50000000  0.33387727  0.56410603  1
  C  C33  1  0.50000000  0.33238150  0.68904310  1
  C  C34  1  0.50000000  0.32947373  0.81528330  1
  C  C35  1  0.50000000  0.32936519  0.94059375  1
  C  C36  1  0.50000000  0.37978327  0.06606012  1
  C  C37  1  0.50000000  0.37918963  0.19025095  1
  C  C38  1  0.50000000  0.37955533  0.31394223  1
  C  C39  1  0.50000000  0.38104160  0.43947643  1
  C  C40  1  0.50000000  0.38198502  0.56456176  1
  C  C41  1  0.50000000  0.38073363  0.68931679  1
  C  C42  1  0.50000000  0.37820966  0.81505346  1
  C  C43  1  0.50000000  0.37794979  0.94015201  1
  C  C44  1  0.50000000  0.40205728  0.00286420  1
  C  C45  1  0.50000000  0.40288092  0.12822651  1
  C  C46  1  0.50000000  0.40313980  0.25186361  1
  C  C47  1  0.50000000  0.40288065  0.37598902  1
  C  C48  1  0.50000000  0.40555977  0.50202884  1
  C  C49  1  0.50000000  0.40565732  0.62725840  1
  C  C50  1  0.50000000  0.40328466  0.75284731  1
  C  C51  1  0.50000000  0.40178717  0.87759576  1
  C  C52  1  0.50000000  0.45012178  0.00398449  1
  C  C53  1  0.50000000  0.45091909  0.12825320  1
  C  C54  1  0.50000000  0.45159898  0.25165136  1
  C  C55  1  0.50000000  0.45050576  0.37521657  1
  C  C56  1  0.50000000  0.45425351  0.50127795  1
  C  C57  1  0.50000000  0.45437720  0.62721382  1
  C  C58  1  0.50000000  0.45162651  0.75315299  1
  C  C59  1  0.50000000  0.44991310  0.87797529  1
  C  C60  1  0.50000000  0.47282405  0.06525778  1
  C  C61  1  0.50000000  0.47431153  0.18948381  1
  C  C62  1  0.50000000  0.47399144  0.31398746  1
  C  C63  1  0.50000000  0.47345509  0.43701258  1
  C  C64  1  0.50000000  0.47935099  0.56541010  1
  C  C65  1  0.50000000  0.47696561  0.69172734  1
  C  C66  1  0.50000000  0.47475631  0.81643042  1
  C  C67  1  0.50000000  0.47367461  0.94017989  1
  C  C68  1  0.50000000  0.52834420  0.56965695  1
  C  C69  1  0.50000000  0.52519500  0.69465038  1
  C  C70  1  0.50000000  0.52271799  0.81822865  1
  C  C71  1  0.50000000  0.52017724  0.93987549  1
  C  C72  1  0.50000000  0.55784356  0.51359522  1
  C  C73  1  0.50000000  0.55081897  0.63385649  1
  C  C74  1  0.50000000  0.54813904  0.75776721  1
  C  C75  1  0.50000000  0.54544642  0.88144919  1
  C  C76  1  0.50000000  0.60368629  0.51726887  1
  C  C77  1  0.50000000  0.59930432  0.63787913  1
  C  C78  1  0.50000000  0.59635553  0.76137767  1
  C  C79  1  0.50000000  0.59384162  0.88537259  1
  C  C80  1  0.50000000  0.62614354  0.57876316  1
  C  C81  1  0.50000000  0.62190617  0.70152434  1
  C  C82  1  0.50000000  0.61912435  0.82507963  1
  C  C83  1  0.50000000  0.61667766  0.94744106  1
  C  C84  1  0.50000000  0.67451708  0.58099147  1
  C  C85  1  0.50000000  0.67025596  0.70467297  1
  C  C86  1  0.50000000  0.66708909  0.82853541  1
  C  C87  1  0.50000000  0.66286109  0.95073729  1
  C  C88  1  0.50000000  0.70078571  0.52208240  1
  C  C89  1  0.50000000  0.69646215  0.64428976  1
  C  C90  1  0.50000000  0.69256637  0.76769612  1
  C  C91  1  0.50000000  0.68925143  0.89220823  1
  C  C92  1  0.50000000  0.74712941  0.52481188  1
  C  C93  1  0.50000000  0.74442485  0.64701292  1
  C  C94  1  0.50000000  0.74067596  0.77090238  1
  C  C95  1  0.50000000  0.73791491  0.89578878  1
  C  C96  1  0.50000000  0.77010773  0.58636801  1
  C  C97  1  0.50000000  0.76613533  0.71101495  1
  C  C98  1  0.50000000  0.76290190  0.83482731  1
  C  C99  1  0.50000000  0.76113786  0.95748050  1
  C  C100  1  0.50000000  0.81933766  0.58914249  1
  C  C101  1  0.50000000  0.81454242  0.71390741  1
  C  C102  1  0.50000000  0.81108932  0.83744952  1
  C  C103  1  0.50000000  0.80802552  0.95986783  1
  H  H104  1  0.50000000  0.88255780  0.53732416  1
  H  H105  1  0.50000000  0.87601213  0.65733890  1
  H  H106  1  0.50000000  0.87234573  0.77940542  1
  H  H107  1  0.50000000  0.86952125  0.90225849  1
  H  H108  1  0.50000000  0.12872231  0.49728818  1
  H  H109  1  0.50000000  0.12922510  0.61902702  1
  H  H110  1  0.50000000  0.12747025  0.73863657  1
  H  H111  1  0.50000000  0.12110765  0.85469689  1
  H  H112  1  0.50000000  0.83247848  0.48113280  1
  H  H113  1  0.50000000  0.18145508  0.44732510  1
  H  H114  1  0.50000000  0.15766886  0.96941398  1
  H  H115  1  0.50000000  0.23440466  0.98022557  1
  H  H116  1  0.50000000  0.24539989  0.45496778  1
  H  H117  1  0.50000000  0.27410841  0.01139381  1
  H  H118  1  0.50000000  0.27172461  0.12698489  1
  H  H119  1  0.50000000  0.27133300  0.25345025  1
  H  H120  1  0.50000000  0.27341892  0.37647039  1
  H  H121  1  0.50000000  0.50937140  0.06687118  1
  H  H122  1  0.50000000  0.51100614  0.18896040  1
  H  H123  1  0.50000000  0.51069594  0.31485782  1
  H  H124  1  0.50000000  0.50880870  0.42846240  1
  H  H125  1  0.50000000  0.53763489  0.98780916  1
  H  H126  1  0.50000000  0.54665421  0.46248509  1
  H  H127  1  0.50000000  0.62212299  0.46981775  1
  H  H128  1  0.50000000  0.59826695  0.99490757  1
  H  H129  1  0.50000000  0.67872201  1.00028781  1
  H  H130  1  0.50000000  0.68485764  0.47259285  1
  H  H131  1  0.50000000  0.76587265  0.47751061  1
  H  H132  1  0.50000000  0.74269881  1.00500137  1
  H  H133  1  0.50000000  0.82490159  1.00883642  1
