# generated using pymatgen
data_HC4
_symmetry_space_group_name_H-M   'P 1'
_cell_length_a   10.00000000
_cell_length_b   29.89204000
_cell_length_c   19.77731657
_cell_angle_alpha   90.00000000
_cell_angle_beta   90.00000000
_cell_angle_gamma   90.00000000
_symmetry_Int_Tables_number   1
_chemical_formula_structural   HC4
_chemical_formula_sum   'H28 C112'
_cell_volume   5911.84338048
_cell_formula_units_Z   28
loop_
 _symmetry_equiv_pos_site_id
 _symmetry_equiv_pos_as_xyz
  1  'x, y, z'
loop_
 _atom_site_type_symbol
 _atom_site_label
 _atom_site_symmetry_multiplicity
 _atom_site_fract_x
 _atom_site_fract_y
 _atom_site_fract_z
 _atom_site_occupancy
  C  C0  1  0.50000000  0.83603342  0.49267991  1
  C  C1  1  0.50000000  0.83527126  0.61539362  1
  C  C2  1  0.50000000  0.83758544  0.73922586  1
  C  C3  1  0.50000000  0.84085853  0.86380825  1
  C  C4  1  0.50000000  0.16438317  0.01282018  1
  C  C5  1  0.50000000  0.16276517  0.13822573  1
  C  C6  1  0.50000000  0.16193924  0.26451087  1
  C  C7  1  0.50000000  0.16250950  0.39061606  1
  C  C8  1  0.50000000  0.16390705  0.51622853  1
  C  C9  1  0.50000000  0.16553725  0.64092319  1
  C  C10  1  0.50000000  0.16629441  0.76483655  1
  C  C11  1  0.50000000  0.16579647  0.88851428  1
  C  C12  1  0.50000000  0.18624701  0.07595419  1
  C  C13  1  0.50000000  0.18469496  0.20163969  1
  C  C14  1  0.50000000  0.18470365  0.32738377  1
  C  C15  1  0.50000000  0.18581534  0.45300967  1
  C  C16  1  0.50000000  0.18760807  0.57808066  1
  C  C17  1  0.50000000  0.18905574  0.70266970  1
  C  C18  1  0.50000000  0.18924357  0.82682840  1
  C  C19  1  0.50000000  0.18804762  0.95106368  1
  C  C20  1  0.50000000  0.23465689  0.07624854  1
  C  C21  1  0.50000000  0.23304984  0.20188884  1
  C  C22  1  0.50000000  0.23313078  0.32720202  1
  C  C23  1  0.50000000  0.23426181  0.45253103  1
  C  C24  1  0.50000000  0.23603372  0.57769333  1
  C  C25  1  0.50000000  0.23748787  0.70259657  1
  C  C26  1  0.50000000  0.23771480  0.82702209  1
  C  C27  1  0.50000000  0.23647075  0.95129910  1
  C  C28  1  0.50000000  0.25917696  0.01404593  1
  C  C29  1  0.50000000  0.25702836  0.13958881  1
  C  C30  1  0.50000000  0.25652708  0.26448957  1
  C  C31  1  0.50000000  0.25711440  0.38955092  1
  C  C32  1  0.50000000  0.25880895  0.51457129  1
  C  C33  1  0.50000000  0.26044189  0.63975328  1
  C  C34  1  0.50000000  0.26160682  0.76490561  1
  C  C35  1  0.50000000  0.26116389  0.88951378  1
  C  C36  1  0.50000000  0.30721691  0.01430281  1
  C  C37  1  0.50000000  0.30481754  0.14004605  1
  C  C38  1  0.50000000  0.30450074  0.26442115  1
  C  C39  1  0.50000000  0.30514453  0.38917181  1
  C  C40  1  0.50000000  0.30676161  0.51403803  1
  C  C41  1  0.50000000  0.30849067  0.63940946  1
  C  C42  1  0.50000000  0.30985354  0.76495302  1
  C  C43  1  0.50000000  0.30945927  0.88968285  1
  C  C44  1  0.50000000  0.32870307  0.07801546  1
  C  C45  1  0.50000000  0.32832633  0.20233658  1
  C  C46  1  0.50000000  0.32821382  0.32660283  1
  C  C47  1  0.50000000  0.32959008  0.45115681  1
  C  C48  1  0.50000000  0.33125724  0.57645924  1
  C  C49  1  0.50000000  0.33300878  0.70172708  1
  C  C50  1  0.50000000  0.33401186  0.82726181  1
  C  C51  1  0.50000000  0.33258596  0.95225766  1
  C  C52  1  0.50000000  0.37630839  0.07917343  1
  C  C53  1  0.50000000  0.37667373  0.20254203  1
  C  C54  1  0.50000000  0.37631631  0.32600975  1
  C  C55  1  0.50000000  0.37767799  0.44973204  1
  C  C56  1  0.50000000  0.37907331  0.57585953  1
  C  C57  1  0.50000000  0.38090806  0.70127594  1
  C  C58  1  0.50000000  0.38266086  0.82753163  1
  C  C59  1  0.50000000  0.38135581  0.95332073  1
  C  C60  1  0.50000000  0.39999639  0.01790758  1
  C  C61  1  0.50000000  0.39956009  0.14062486  1
  C  C62  1  0.50000000  0.39944351  0.26464784  1
  C  C63  1  0.50000000  0.39952912  0.38801822  1
  C  C64  1  0.50000000  0.40227643  0.51307315  1
  C  C65  1  0.50000000  0.40387063  0.63761879  1
  C  C66  1  0.50000000  0.40572320  0.76316801  1
  C  C67  1  0.50000000  0.40728130  0.88972750  1
  C  C68  1  0.50000000  0.44880818  0.51311702  1
  C  C69  1  0.50000000  0.45164785  0.63575988  1
  C  C70  1  0.50000000  0.45383038  0.76034783  1
  C  C71  1  0.50000000  0.45628423  0.88595205  1
  C  C72  1  0.50000000  0.47420963  0.57208160  1
  C  C73  1  0.50000000  0.47683039  0.69683921  1
  C  C74  1  0.50000000  0.47915020  0.82160641  1
  C  C75  1  0.50000000  0.48552797  0.94258709  1
  C  C76  1  0.50000000  0.52262605  0.56874513  1
  C  C77  1  0.50000000  0.52491622  0.69347001  1
  C  C78  1  0.50000000  0.52750817  0.81758954  1
  C  C79  1  0.50000000  0.53130279  0.93893728  1
  C  C80  1  0.50000000  0.54586010  0.50665136  1
  C  C81  1  0.50000000  0.54779318  0.62959274  1
  C  C82  1  0.50000000  0.55032286  0.75380423  1
  C  C83  1  0.50000000  0.55393645  0.87720268  1
  C  C84  1  0.50000000  0.59204143  0.50384148  1
  C  C85  1  0.50000000  0.59578563  0.62661012  1
  C  C86  1  0.50000000  0.59855604  0.75097289  1
  C  C87  1  0.50000000  0.60208893  0.87520587  1
  C  C88  1  0.50000000  0.61830291  0.56296947  1
  C  C89  1  0.50000000  0.62121669  0.68782477  1
  C  C90  1  0.50000000  0.62435812  0.81188342  1
  C  C91  1  0.50000000  0.62789811  0.93485016  1
  C  C92  1  0.50000000  0.66687953  0.56008107  1
  C  C93  1  0.50000000  0.66936538  0.68517419  1
  C  C94  1  0.50000000  0.67222210  0.80965694  1
  C  C95  1  0.50000000  0.67407476  0.93265982  1
  C  C96  1  0.50000000  0.69044577  0.49828774  1
  C  C97  1  0.50000000  0.69205069  0.62127178  1
  C  C98  1  0.50000000  0.69462904  0.74585822  1
  C  C99  1  0.50000000  0.69739600  0.87094087  1
  C  C100  1  0.50000000  0.73685687  0.49618321  1
  C  C101  1  0.50000000  0.74007740  0.61884630  1
  C  C102  1  0.50000000  0.74266610  0.74360399  1
  C  C103  1  0.50000000  0.74600821  0.86907117  1
  C  C104  1  0.50000000  0.76280659  0.55530104  1
  C  C105  1  0.50000000  0.76495135  0.68064521  1
  C  C106  1  0.50000000  0.76796574  0.80517269  1
  C  C107  1  0.50000000  0.77210532  0.92836744  1
  C  C108  1  0.50000000  0.81209544  0.55265888  1
  C  C109  1  0.50000000  0.81338295  0.67823046  1
  C  C110  1  0.50000000  0.81611677  0.80251088  1
  C  C111  1  0.50000000  0.81896134  0.92565036  1
  H  H112  1  0.50000000  0.87268754  0.49384514  1
  H  H113  1  0.50000000  0.87198315  0.61476957  1
  H  H114  1  0.50000000  0.87424813  0.73728960  1
  H  H115  1  0.50000000  0.87748467  0.86137996  1
  H  H116  1  0.50000000  0.12771569  0.01130148  1
  H  H117  1  0.50000000  0.12607455  0.13695942  1
  H  H118  1  0.50000000  0.12523626  0.26441361  1
  H  H119  1  0.50000000  0.12579916  0.39145606  1
  H  H120  1  0.50000000  0.12721603  0.51785913  1
  H  H121  1  0.50000000  0.12885091  0.64229361  1
  H  H122  1  0.50000000  0.12960762  0.76506241  1
  H  H123  1  0.50000000  0.12913823  0.88757592  1
  H  H124  1  0.50000000  0.82017803  0.44287163  1
  H  H125  1  0.50000000  0.43527137  0.02715648  1
  H  H126  1  0.50000000  0.43626690  0.14032634  1
  H  H127  1  0.50000000  0.43609783  0.26508426  1
  H  H128  1  0.50000000  0.43602055  0.38501632  1
  H  H129  1  0.50000000  0.46625079  0.46490950  1
  H  H130  1  0.50000000  0.47412182  0.99391038  1
  H  H131  1  0.50000000  0.54973176  0.98658558  1
  H  H132  1  0.50000000  0.52757452  0.45879249  1
  H  H133  1  0.50000000  0.60804543  0.45413725  1
  H  H134  1  0.50000000  0.61178114  0.98438868  1
  H  H135  1  0.50000000  0.69238432  0.98045816  1
  H  H136  1  0.50000000  0.67239237  0.45020794  1
  H  H137  1  0.50000000  0.75349969  0.44691149  1
  H  H138  1  0.50000000  0.75594091  0.97796457  1
  H  H139  1  0.50000000  0.83821207  0.97282958  1
