# generated using pymatgen
data_H13C60
_symmetry_space_group_name_H-M   'P 1'
_cell_length_a   10.00000000
_cell_length_b   29.89204000
_cell_length_c   19.81954831
_cell_angle_alpha   90.00000000
_cell_angle_beta   90.00000000
_cell_angle_gamma   90.00000000
_symmetry_Int_Tables_number   1
_chemical_formula_structural   H13C60
_chemical_formula_sum   'H26 C120'
_cell_volume   5924.46730883
_cell_formula_units_Z   2
loop_
 _symmetry_equiv_pos_site_id
 _symmetry_equiv_pos_as_xyz
  1  'x, y, z'
loop_
 _atom_site_type_symbol
 _atom_site_label
 _atom_site_symmetry_multiplicity
 _atom_site_fract_x
 _atom_site_fract_y
 _atom_site_fract_z
 _atom_site_occupancy
  C  C0  1  0.50000000  0.84672631  0.52579102  1
  C  C1  1  0.50000000  0.83956877  0.64732054  1
  C  C2  1  0.50000000  0.83560265  0.76948796  1
  C  C3  1  0.50000000  0.83377880  0.89327395  1
  C  C4  1  0.50000000  0.16382480  0.50180169  1
  C  C5  1  0.50000000  0.16537638  0.62392997  1
  C  C6  1  0.50000000  0.16395157  0.74618056  1
  C  C7  1  0.50000000  0.15802360  0.86722005  1
  C  C8  1  0.50000000  0.18802084  0.56138763  1
  C  C9  1  0.50000000  0.18798461  0.68594876  1
  C  C10  1  0.50000000  0.18531268  0.80904867  1
  C  C11  1  0.50000000  0.17862178  0.92919252  1
  C  C12  1  0.50000000  0.23729425  0.56472555  1
  C  C13  1  0.50000000  0.23635335  0.68937212  1
  C  C14  1  0.50000000  0.23375319  0.81367592  1
  C  C15  1  0.50000000  0.22527093  0.93387084  1
  C  C16  1  0.50000000  0.26222366  0.50613564  1
  C  C17  1  0.50000000  0.26059197  0.62804195  1
  C  C18  1  0.50000000  0.25905651  0.75245346  1
  C  C19  1  0.50000000  0.25549034  0.87834429  1
  C  C20  1  0.50000000  0.31113649  0.00830733  1
  C  C21  1  0.50000000  0.31005703  0.13146762  1
  C  C22  1  0.50000000  0.30976894  0.25629261  1
  C  C23  1  0.50000000  0.31039543  0.38061370  1
  C  C24  1  0.50000000  0.30902986  0.50574266  1
  C  C25  1  0.50000000  0.30840099  0.62974745  1
  C  C26  1  0.50000000  0.30716721  0.75488516  1
  C  C27  1  0.50000000  0.30502613  0.88127357  1
  C  C28  1  0.50000000  0.33381644  0.07013159  1
  C  C29  1  0.50000000  0.33242246  0.19389868  1
  C  C30  1  0.50000000  0.33292117  0.31806720  1
  C  C31  1  0.50000000  0.33289050  0.44223489  1
  C  C32  1  0.50000000  0.33282095  0.56794537  1
  C  C33  1  0.50000000  0.33175373  0.69310258  1
  C  C34  1  0.50000000  0.32995090  0.81919783  1
  C  C35  1  0.50000000  0.33069958  0.94416517  1
  C  C36  1  0.50000000  0.38140188  0.06923574  1
  C  C37  1  0.50000000  0.38068499  0.19375660  1
  C  C38  1  0.50000000  0.38096758  0.31856846  1
  C  C39  1  0.50000000  0.38086107  0.44350042  1
  C  C40  1  0.50000000  0.38073679  0.56858937  1
  C  C41  1  0.50000000  0.37983225  0.69346280  1
  C  C42  1  0.50000000  0.37869741  0.81869818  1
  C  C43  1  0.50000000  0.37929929  0.94327732  1
  C  C44  1  0.50000000  0.40369729  0.00589309  1
  C  C45  1  0.50000000  0.40457693  0.13158079  1
  C  C46  1  0.50000000  0.40419673  0.25597845  1
  C  C47  1  0.50000000  0.40446889  0.38105395  1
  C  C48  1  0.50000000  0.40457045  0.50609386  1
  C  C49  1  0.50000000  0.40423747  0.63121718  1
  C  C50  1  0.50000000  0.40324658  0.75634680  1
  C  C51  1  0.50000000  0.40309696  0.88093463  1
  C  C52  1  0.50000000  0.45156934  0.00577970  1
  C  C53  1  0.50000000  0.45212587  0.13130206  1
  C  C54  1  0.50000000  0.45182578  0.25599101  1
  C  C55  1  0.50000000  0.45226399  0.38138342  1
  C  C56  1  0.50000000  0.45249586  0.50653974  1
  C  C57  1  0.50000000  0.45245690  0.63128811  1
  C  C58  1  0.50000000  0.45166781  0.75599228  1
  C  C59  1  0.50000000  0.45135738  0.88073869  1
  C  C60  1  0.50000000  0.47525568  0.06842582  1
  C  C61  1  0.50000000  0.47552816  0.19377767  1
  C  C62  1  0.50000000  0.47527464  0.31845624  1
  C  C63  1  0.50000000  0.47605025  0.44401853  1
  C  C64  1  0.50000000  0.47654887  0.56898157  1
  C  C65  1  0.50000000  0.47628158  0.69367483  1
  C  C66  1  0.50000000  0.47548423  0.81841041  1
  C  C67  1  0.50000000  0.47528856  0.94327937  1
  C  C68  1  0.50000000  0.52303442  0.06879010  1
  C  C69  1  0.50000000  0.52315925  0.19379778  1
  C  C70  1  0.50000000  0.52281029  0.31814585  1
  C  C71  1  0.50000000  0.52394045  0.44402854  1
  C  C72  1  0.50000000  0.52480031  0.56887210  1
  C  C73  1  0.50000000  0.52473139  0.69339521  1
  C  C74  1  0.50000000  0.52366834  0.81849227  1
  C  C75  1  0.50000000  0.52318092  0.94369121  1
  C  C76  1  0.50000000  0.54670097  0.00639321  1
  C  C77  1  0.50000000  0.54646544  0.13128834  1
  C  C78  1  0.50000000  0.54668055  0.25598116  1
  C  C79  1  0.50000000  0.54601820  0.38052108  1
  C  C80  1  0.50000000  0.54856829  0.50652788  1
  C  C81  1  0.50000000  0.54931720  0.63115099  1
  C  C82  1  0.50000000  0.54824362  0.75624720  1
  C  C83  1  0.50000000  0.54709036  0.88109948  1
  C  C84  1  0.50000000  0.59465083  0.00774082  1
  C  C85  1  0.50000000  0.59449009  0.13180964  1
  C  C86  1  0.50000000  0.59490596  0.25584739  1
  C  C87  1  0.50000000  0.59356583  0.37953095  1
  C  C88  1  0.50000000  0.59721992  0.50550544  1
  C  C89  1  0.50000000  0.59813297  0.63076204  1
  C  C90  1  0.50000000  0.59637100  0.75643494  1
  C  C91  1  0.50000000  0.59495894  0.88158958  1
  C  C92  1  0.50000000  0.61707666  0.06931250  1
  C  C93  1  0.50000000  0.61759948  0.19352862  1
  C  C94  1  0.50000000  0.61728166  0.31823847  1
  C  C95  1  0.50000000  0.61645267  0.44122381  1
  C  C96  1  0.50000000  0.62298803  0.56865929  1
  C  C97  1  0.50000000  0.62130869  0.69479376  1
  C  C98  1  0.50000000  0.61961821  0.81984886  1
  C  C99  1  0.50000000  0.61850392  0.94405810  1
  C  C100  1  0.50000000  0.67230517  0.57179375  1
  C  C101  1  0.50000000  0.66955188  0.69716882  1
  C  C102  1  0.50000000  0.66744662  0.82159677  1
  C  C103  1  0.50000000  0.66509167  0.94375562  1
  C  C104  1  0.50000000  0.70186036  0.51561172  1
  C  C105  1  0.50000000  0.69502998  0.63594252  1
  C  C106  1  0.50000000  0.69230378  0.76045610  1
  C  C107  1  0.50000000  0.69025330  0.88511649  1
  C  C108  1  0.50000000  0.74792943  0.51922741  1
  C  C109  1  0.50000000  0.74353461  0.63976188  1
  C  C110  1  0.50000000  0.74046776  0.76384780  1
  C  C111  1  0.50000000  0.73890296  0.88884200  1
  C  C112  1  0.50000000  0.77051990  0.58044282  1
  C  C113  1  0.50000000  0.76551367  0.70376840  1
  C  C114  1  0.50000000  0.76331459  0.82763152  1
  C  C115  1  0.50000000  0.76242262  0.95047224  1
  C  C116  1  0.50000000  0.81969739  0.58260163  1
  C  C117  1  0.50000000  0.81405600  0.70658194  1
  C  C118  1  0.50000000  0.81146648  0.83008881  1
  C  C119  1  0.50000000  0.80928539  0.95259784  1
  H  H120  1  0.50000000  0.88318534  0.53194238  1
  H  H121  1  0.50000000  0.87617205  0.65135101  1
  H  H122  1  0.50000000  0.87224585  0.77115689  1
  H  H123  1  0.50000000  0.87043333  0.89401799  1
  H  H124  1  0.50000000  0.12718478  0.50363248  1
  H  H125  1  0.50000000  0.12868604  0.62422668  1
  H  H126  1  0.50000000  0.12729487  0.74470931  1
  H  H127  1  0.50000000  0.12155358  0.86168726  1
  H  H128  1  0.50000000  0.83389585  0.47415497  1
  H  H129  1  0.50000000  0.17916812  0.45172322  1
  H  H130  1  0.50000000  0.15929180  0.97617967  1
  H  H131  1  0.50000000  0.23574119  0.98562984  1
  H  H132  1  0.50000000  0.24436034  0.45828604  1
  H  H133  1  0.50000000  0.27571229  0.01539245  1
  H  H134  1  0.50000000  0.27334837  0.13065508  1
  H  H135  1  0.50000000  0.27307157  0.25653170  1
  H  H136  1  0.50000000  0.27384819  0.37892069  1
  H  H137  1  0.50000000  0.65361084  0.07138189  1
  H  H138  1  0.50000000  0.65427705  0.19344197  1
  H  H139  1  0.50000000  0.65398188  0.31902855  1
  H  H140  1  0.50000000  0.65180730  0.43333493  1
  H  H141  1  0.50000000  0.68271395  0.99172047  1
  H  H142  1  0.50000000  0.69103466  0.46412260  1
  H  H143  1  0.50000000  0.76636411  0.47155120  1
  H  H144  1  0.50000000  0.74440497  0.99846100  1
  H  H145  1  0.50000000  0.82629885  1.00156275  1
