# generated using pymatgen
data_H13C36
_symmetry_space_group_name_H-M   'P 1'
_cell_length_a   10.00000000
_cell_length_b   25.62946000
_cell_length_c   19.75205489
_cell_angle_alpha   90.00000000
_cell_angle_beta   90.00000000
_cell_angle_gamma   90.00000000
_symmetry_Int_Tables_number   1
_chemical_formula_structural   H13C36
_chemical_formula_sum   'H26 C72'
_cell_volume   5062.34500631
_cell_formula_units_Z   2
loop_
 _symmetry_equiv_pos_site_id
 _symmetry_equiv_pos_as_xyz
  1  'x, y, z'
loop_
 _atom_site_type_symbol
 _atom_site_label
 _atom_site_symmetry_multiplicity
 _atom_site_fract_x
 _atom_site_fract_y
 _atom_site_fract_z
 _atom_site_occupancy
  C  C0  1  0.50000000  0.22521142  0.53928078  1
  C  C1  1  0.50000000  0.23064089  0.66182360  1
  C  C2  1  0.50000000  0.23201227  0.78566830  1
  C  C3  1  0.50000000  0.23219302  0.91013667  1
  C  C4  1  0.50000000  0.25537536  0.59749989  1
  C  C5  1  0.50000000  0.25825038  0.72325743  1
  C  C6  1  0.50000000  0.25921704  0.84749108  1
  C  C7  1  0.50000000  0.25959212  0.97060240  1
  C  C8  1  0.50000000  0.31284072  0.59709433  1
  C  C9  1  0.50000000  0.31474089  0.72282867  1
  C  C10  1  0.50000000  0.31549414  0.84733854  1
  C  C11  1  0.50000000  0.31435398  0.97057630  1
  C  C12  1  0.50000000  0.34105957  0.53633034  1
  C  C13  1  0.50000000  0.34130621  0.65939151  1
  C  C14  1  0.50000000  0.34304328  0.78427390  1
  C  C15  1  0.50000000  0.34314382  0.90989310  1
  C  C16  1  0.50000000  0.39515472  0.53594610  1
  C  C17  1  0.50000000  0.39721377  0.65915550  1
  C  C18  1  0.50000000  0.39923162  0.78365121  1
  C  C19  1  0.50000000  0.40012575  0.90899646  1
  C  C20  1  0.50000000  0.42411555  0.59647472  1
  C  C21  1  0.50000000  0.42632948  0.72123448  1
  C  C22  1  0.50000000  0.42761940  0.84613810  1
  C  C23  1  0.50000000  0.42953349  0.96910564  1
  C  C24  1  0.50000000  0.48048682  0.59622412  1
  C  C25  1  0.50000000  0.48265958  0.72045523  1
  C  C26  1  0.50000000  0.48374379  0.84530650  1
  C  C27  1  0.50000000  0.48363061  0.96833601  1
  C  C28  1  0.50000000  0.50801449  0.53533257  1
  C  C29  1  0.50000000  0.51001396  0.65713815  1
  C  C30  1  0.50000000  0.51107092  0.78190797  1
  C  C31  1  0.50000000  0.51214711  0.90743881  1
  C  C32  1  0.50000000  0.56158547  0.53367124  1
  C  C33  1  0.50000000  0.56629811  0.65518410  1
  C  C34  1  0.50000000  0.56721256  0.78066094  1
  C  C35  1  0.50000000  0.56911522  0.90655160  1
  C  C36  1  0.50000000  0.59391332  0.59157192  1
  C  C37  1  0.50000000  0.59447249  0.71758578  1
  C  C38  1  0.50000000  0.59573002  0.84277003  1
  C  C39  1  0.50000000  0.59859214  0.96628087  1
  C  C40  1  0.50000000  0.66084215  0.09370178  1
  C  C41  1  0.50000000  0.66571660  0.21714205  1
  C  C42  1  0.50000000  0.66745939  0.33976530  1
  C  C43  1  0.50000000  0.66362066  0.46091671  1
  C  C44  1  0.50000000  0.65118913  0.58922336  1
  C  C45  1  0.50000000  0.65046477  0.71606839  1
  C  C46  1  0.50000000  0.65153140  0.84182193  1
  C  C47  1  0.50000000  0.65355279  0.96705260  1
  C  C48  1  0.50000000  0.68362561  0.03028382  1
  C  C49  1  0.50000000  0.69042688  0.15452303  1
  C  C50  1  0.50000000  0.69393925  0.27810861  1
  C  C51  1  0.50000000  0.69378384  0.40147590  1
  C  C52  1  0.50000000  0.68273617  0.52658473  1
  C  C53  1  0.50000000  0.67794175  0.65205851  1
  C  C54  1  0.50000000  0.67835268  0.77827965  1
  C  C55  1  0.50000000  0.68013427  0.90401348  1
  C  C56  1  0.50000000  0.74061213  0.02739359  1
  C  C57  1  0.50000000  0.74730775  0.15242922  1
  C  C58  1  0.50000000  0.75097533  0.27801102  1
  C  C59  1  0.50000000  0.75019519  0.40381896  1
  C  C60  1  0.50000000  0.74008903  0.52955289  1
  C  C61  1  0.50000000  0.73483111  0.65375897  1
  C  C62  1  0.50000000  0.73479645  0.77820767  1
  C  C63  1  0.50000000  0.73665343  0.90260478  1
  C  C64  1  0.50000000  0.77036099  0.08771924  1
  C  C65  1  0.50000000  0.77585566  0.21401099  1
  C  C66  1  0.50000000  0.77748444  0.34125638  1
  C  C67  1  0.50000000  0.77138068  0.46987497  1
  C  C68  1  0.50000000  0.76385083  0.59336382  1
  C  C69  1  0.50000000  0.76117790  0.71603580  1
  C  C70  1  0.50000000  0.76218378  0.83983920  1
  C  C71  1  0.50000000  0.76500351  0.96369587  1
  H  H72  1  0.50000000  0.18259682  0.54378577  1
  H  H73  1  0.50000000  0.18786941  0.66339225  1
  H  H74  1  0.50000000  0.18923159  0.78614608  1
  H  H75  1  0.50000000  0.18943251  0.90951284  1
  H  H76  1  0.50000000  0.81304240  0.08327084  1
  H  H77  1  0.50000000  0.81866859  0.21164989  1
  H  H78  1  0.50000000  0.82033119  0.34129678  1
  H  H79  1  0.50000000  0.81391285  0.47686797  1
  H  H80  1  0.50000000  0.80656413  0.59660487  1
  H  H81  1  0.50000000  0.80397694  0.71594740  1
  H  H82  1  0.50000000  0.80495139  0.83879003  1
  H  H83  1  0.50000000  0.80775935  0.96141756  1
  H  H84  1  0.50000000  0.24143029  0.48804420  1
  H  H85  1  0.50000000  0.23840198  0.01878237  1
  H  H86  1  0.50000000  0.33455001  0.01932212  1
  H  H87  1  0.50000000  0.32036068  0.48791444  1
  H  H88  1  0.50000000  0.41504113  0.48702800  1
  H  H89  1  0.50000000  0.40971600  0.01812908  1
  H  H90  1  0.50000000  0.50404511  0.01696307  1
  H  H91  1  0.50000000  0.48764036  0.48676875  1
  H  H92  1  0.50000000  0.57698335  0.48322477  1
  H  H93  1  0.50000000  0.57803741  0.01465975  1
  H  H94  1  0.50000000  0.61833901  0.09962880  1
  H  H95  1  0.50000000  0.62298426  0.21959905  1
  H  H96  1  0.50000000  0.62466633  0.33944053  1
  H  H97  1  0.50000000  0.62279677  0.44861469  1
