# generated using pymatgen
data_H3C16
_symmetry_space_group_name_H-M   'P 1'
_cell_length_a   10.00000000
_cell_length_b   29.89204000
_cell_length_c   19.77053037
_cell_angle_alpha   90.00000000
_cell_angle_beta   90.00000000
_cell_angle_gamma   90.00000000
_symmetry_Int_Tables_number   1
_chemical_formula_structural   H3C16
_chemical_formula_sum   'H24 C128'
_cell_volume   5909.81484696
_cell_formula_units_Z   8
loop_
 _symmetry_equiv_pos_site_id
 _symmetry_equiv_pos_as_xyz
  1  'x, y, z'
loop_
 _atom_site_type_symbol
 _atom_site_label
 _atom_site_symmetry_multiplicity
 _atom_site_fract_x
 _atom_site_fract_y
 _atom_site_fract_z
 _atom_site_occupancy
  C  C0  1  0.50000000  0.83587384  0.49679845  1
  C  C1  1  0.50000000  0.83477062  0.61913292  1
  C  C2  1  0.50000000  0.83778352  0.74266648  1
  C  C3  1  0.50000000  0.84135739  0.86718844  1
  C  C4  1  0.50000000  0.16523645  0.01026721  1
  C  C5  1  0.50000000  0.16474671  0.13527929  1
  C  C6  1  0.50000000  0.16440478  0.26072684  1
  C  C7  1  0.50000000  0.16448343  0.38632349  1
  C  C8  1  0.50000000  0.16495930  0.51160500  1
  C  C9  1  0.50000000  0.16544694  0.63649207  1
  C  C10  1  0.50000000  0.16568651  0.76108941  1
  C  C11  1  0.50000000  0.16559721  0.88558478  1
  C  C12  1  0.50000000  0.18779309  0.07287828  1
  C  C13  1  0.50000000  0.18725011  0.19808316  1
  C  C14  1  0.50000000  0.18709314  0.32350024  1
  C  C15  1  0.50000000  0.18747608  0.44883301  1
  C  C16  1  0.50000000  0.18804926  0.57391113  1
  C  C17  1  0.50000000  0.18848811  0.69870926  1
  C  C18  1  0.50000000  0.18858708  0.82333053  1
  C  C19  1  0.50000000  0.18829700  0.94799076  1
  C  C20  1  0.50000000  0.23613347  0.07285314  1
  C  C21  1  0.50000000  0.23562435  0.19809380  1
  C  C22  1  0.50000000  0.23550044  0.32342384  1
  C  C23  1  0.50000000  0.23587808  0.44864946  1
  C  C24  1  0.50000000  0.23645856  0.57369453  1
  C  C25  1  0.50000000  0.23691945  0.69852916  1
  C  C26  1  0.50000000  0.23700149  0.82319960  1
  C  C27  1  0.50000000  0.23666162  0.94790625  1
  C  C28  1  0.50000000  0.26005714  0.01040665  1
  C  C29  1  0.50000000  0.25942668  0.13553041  1
  C  C30  1  0.50000000  0.25909668  0.26078397  1
  C  C31  1  0.50000000  0.25929235  0.38595468  1
  C  C32  1  0.50000000  0.25985729  0.51103008  1
  C  C33  1  0.50000000  0.26047053  0.63598236  1
  C  C34  1  0.50000000  0.26079873  0.76082452  1
  C  C35  1  0.50000000  0.26061453  0.88556862  1
  C  C36  1  0.50000000  0.30800660  0.01015669  1
  C  C37  1  0.50000000  0.30729946  0.13537992  1
  C  C38  1  0.50000000  0.30695300  0.26076422  1
  C  C39  1  0.50000000  0.30722142  0.38593651  1
  C  C40  1  0.50000000  0.30784114  0.51100742  1
  C  C41  1  0.50000000  0.30854136  0.63594216  1
  C  C42  1  0.50000000  0.30887830  0.76071965  1
  C  C43  1  0.50000000  0.30864024  0.88534011  1
  C  C44  1  0.50000000  0.33129661  0.07282527  1
  C  C45  1  0.50000000  0.33058907  0.19815589  1
  C  C46  1  0.50000000  0.33070559  0.32326468  1
  C  C47  1  0.50000000  0.33123807  0.44830816  1
  C  C48  1  0.50000000  0.33205267  0.57333266  1
  C  C49  1  0.50000000  0.33269394  0.69827897  1
  C  C50  1  0.50000000  0.33277813  0.82303190  1
  C  C51  1  0.50000000  0.33217553  0.94777505  1
  C  C52  1  0.50000000  0.37907951  0.07261124  1
  C  C53  1  0.50000000  0.37824762  0.19810317  1
  C  C54  1  0.50000000  0.37847079  0.32311291  1
  C  C55  1  0.50000000  0.37909124  0.44814002  1
  C  C56  1  0.50000000  0.38000926  0.57327025  1
  C  C57  1  0.50000000  0.38073655  0.69827964  1
  C  C58  1  0.50000000  0.38086879  0.82292077  1
  C  C59  1  0.50000000  0.38013113  0.94750002  1
  C  C60  1  0.50000000  0.40332557  0.01006535  1
  C  C61  1  0.50000000  0.40194817  0.13565257  1
  C  C62  1  0.50000000  0.40192721  0.26047149  1
  C  C63  1  0.50000000  0.40238211  0.38544229  1
  C  C64  1  0.50000000  0.40335715  0.51040996  1
  C  C65  1  0.50000000  0.40424110  0.63559245  1
  C  C66  1  0.50000000  0.40497285  0.76066650  1
  C  C67  1  0.50000000  0.40470411  0.88533553  1
  C  C68  1  0.50000000  0.45120777  0.01005683  1
  C  C69  1  0.50000000  0.44950437  0.13581125  1
  C  C70  1  0.50000000  0.44966979  0.26018630  1
  C  C71  1  0.50000000  0.45018769  0.38498428  1
  C  C72  1  0.50000000  0.45115737  0.50998540  1
  C  C73  1  0.50000000  0.45221715  0.63543525  1
  C  C74  1  0.50000000  0.45323165  0.76081366  1
  C  C75  1  0.50000000  0.45290820  0.88537715  1
  C  C76  1  0.50000000  0.47305762  0.07357778  1
  C  C77  1  0.50000000  0.47326274  0.19795441  1
  C  C78  1  0.50000000  0.47337622  0.32241835  1
  C  C79  1  0.50000000  0.47436203  0.44715809  1
  C  C80  1  0.50000000  0.47535990  0.57259678  1
  C  C81  1  0.50000000  0.47667006  0.69776720  1
  C  C82  1  0.50000000  0.47761285  0.82304109  1
  C  C83  1  0.50000000  0.47626054  0.94782083  1
  C  C84  1  0.50000000  0.52056845  0.07452967  1
  C  C85  1  0.50000000  0.52149122  0.19800118  1
  C  C86  1  0.50000000  0.52141382  0.32181596  1
  C  C87  1  0.50000000  0.52233503  0.44577580  1
  C  C88  1  0.50000000  0.52314146  0.57212108  1
  C  C89  1  0.50000000  0.52463539  0.69745079  1
  C  C90  1  0.50000000  0.52627238  0.82334516  1
  C  C91  1  0.50000000  0.52490826  0.94877763  1
  C  C92  1  0.50000000  0.54389195  0.01314278  1
  C  C93  1  0.50000000  0.54412780  0.13582427  1
  C  C94  1  0.50000000  0.54438391  0.26008613  1
  C  C95  1  0.50000000  0.54446371  0.38401365  1
  C  C96  1  0.50000000  0.54656122  0.50940671  1
  C  C97  1  0.50000000  0.54783425  0.63394768  1
  C  C98  1  0.50000000  0.54947185  0.75925789  1
  C  C99  1  0.50000000  0.55090576  0.88559115  1
  C  C100  1  0.50000000  0.59309046  0.50966298  1
  C  C101  1  0.50000000  0.59563112  0.63226177  1
  C  C102  1  0.50000000  0.59765942  0.75678411  1
  C  C103  1  0.50000000  0.60001287  0.88243359  1
  C  C104  1  0.50000000  0.61832412  0.56864795  1
  C  C105  1  0.50000000  0.62073182  0.69340918  1
  C  C106  1  0.50000000  0.62294547  0.81822859  1
  C  C107  1  0.50000000  0.62936247  0.93907725  1
  C  C108  1  0.50000000  0.66679263  0.56526532  1
  C  C109  1  0.50000000  0.66885794  0.69021197  1
  C  C110  1  0.50000000  0.67140201  0.81456078  1
  C  C111  1  0.50000000  0.67524958  0.93573135  1
  C  C112  1  0.50000000  0.69003115  0.50328197  1
  C  C113  1  0.50000000  0.69178304  0.62623054  1
  C  C114  1  0.50000000  0.69401901  0.75067121  1
  C  C115  1  0.50000000  0.69803678  0.87426126  1
  C  C116  1  0.50000000  0.73633162  0.50047988  1
  C  C117  1  0.50000000  0.73978041  0.62324090  1
  C  C118  1  0.50000000  0.74233263  0.74789338  1
  C  C119  1  0.50000000  0.74657313  0.87245594  1
  C  C120  1  0.50000000  0.76232278  0.55950052  1
  C  C121  1  0.50000000  0.76466970  0.68487164  1
  C  C122  1  0.50000000  0.76830253  0.80874401  1
  C  C123  1  0.50000000  0.77270302  0.93179811  1
  C  C124  1  0.50000000  0.81157500  0.55650635  1
  C  C125  1  0.50000000  0.81312315  0.68209561  1
  C  C126  1  0.50000000  0.81646965  0.80598366  1
  C  C127  1  0.50000000  0.81955769  0.92911177  1
  H  H128  1  0.50000000  0.87254219  0.49893490  1
  H  H129  1  0.50000000  0.87143742  0.61824045  1
  H  H130  1  0.50000000  0.87444643  0.74026619  1
  H  H131  1  0.50000000  0.87797469  0.86456341  1
  H  H132  1  0.50000000  0.12854540  0.00993293  1
  H  H133  1  0.50000000  0.12805246  0.13483015  1
  H  H134  1  0.50000000  0.12769663  0.26059263  1
  H  H135  1  0.50000000  0.12776776  0.38659765  1
  H  H136  1  0.50000000  0.12825974  0.51211471  1
  H  H137  1  0.50000000  0.12875158  0.63690447  1
  H  H138  1  0.50000000  0.12899578  0.76128205  1
  H  H139  1  0.50000000  0.12890531  0.88543352  1
  H  H140  1  0.50000000  0.82059148  0.44654842  1
  H  H141  1  0.50000000  0.57917380  0.02169777  1
  H  H142  1  0.50000000  0.58082310  0.13513603  1
  H  H143  1  0.50000000  0.58103897  0.25982092  1
  H  H144  1  0.50000000  0.58099906  0.38138043  1
  H  H145  1  0.50000000  0.61053387  0.46141201  1
  H  H146  1  0.50000000  0.61819288  0.99052136  1
  H  H147  1  0.50000000  0.69340511  0.98368288  1
  H  H148  1  0.50000000  0.67174978  0.45544090  1
  H  H149  1  0.50000000  0.75256513  0.45087547  1
  H  H150  1  0.50000000  0.75665737  0.98144472  1
  H  H151  1  0.50000000  0.83883080  0.97633733  1
