# generated using pymatgen
data_HC4
_symmetry_space_group_name_H-M   'P 1'
_cell_length_a   10.00000000
_cell_length_b   25.62946000
_cell_length_c   19.77689406
_cell_angle_alpha   90.00000000
_cell_angle_beta   90.00000000
_cell_angle_gamma   90.00000000
_symmetry_Int_Tables_number   1
_chemical_formula_structural   HC4
_chemical_formula_sum   'H22 C88'
_cell_volume   5068.71115207
_cell_formula_units_Z   22
loop_
 _symmetry_equiv_pos_site_id
 _symmetry_equiv_pos_as_xyz
  1  'x, y, z'
loop_
 _atom_site_type_symbol
 _atom_site_label
 _atom_site_symmetry_multiplicity
 _atom_site_fract_x
 _atom_site_fract_y
 _atom_site_fract_z
 _atom_site_occupancy
  C  C0  1  0.50000000  0.23450776  0.00854740  1
  C  C1  1  0.50000000  0.23283970  0.13404750  1
  C  C2  1  0.50000000  0.23216267  0.26029669  1
  C  C3  1  0.50000000  0.23296965  0.38612547  1
  C  C4  1  0.50000000  0.23444205  0.51159837  1
  C  C5  1  0.50000000  0.23605898  0.63629222  1
  C  C6  1  0.50000000  0.23670715  0.76030544  1
  C  C7  1  0.50000000  0.23607250  0.88412771  1
  C  C8  1  0.50000000  0.26008029  0.07169188  1
  C  C9  1  0.50000000  0.25856111  0.19738298  1
  C  C10  1  0.50000000  0.25888595  0.32303293  1
  C  C11  1  0.50000000  0.26011095  0.44847987  1
  C  C12  1  0.50000000  0.26194147  0.57353067  1
  C  C13  1  0.50000000  0.26336658  0.69818078  1
  C  C14  1  0.50000000  0.26340536  0.82238889  1
  C  C15  1  0.50000000  0.26207974  0.94670117  1
  C  C16  1  0.50000000  0.31655773  0.07200108  1
  C  C17  1  0.50000000  0.31499935  0.19762999  1
  C  C18  1  0.50000000  0.31535785  0.32288785  1
  C  C19  1  0.50000000  0.31660206  0.44810539  1
  C  C20  1  0.50000000  0.31843179  0.57324994  1
  C  C21  1  0.50000000  0.31987334  0.69815567  1
  C  C22  1  0.50000000  0.31996932  0.82257553  1
  C  C23  1  0.50000000  0.31858836  0.94692780  1
  C  C24  1  0.50000000  0.34507446  0.00977065  1
  C  C25  1  0.50000000  0.34283422  0.13529512  1
  C  C26  1  0.50000000  0.34253235  0.26015263  1
  C  C27  1  0.50000000  0.34334660  0.38519729  1
  C  C28  1  0.50000000  0.34509497  0.51022785  1
  C  C29  1  0.50000000  0.34679464  0.63541998  1
  C  C30  1  0.50000000  0.34786700  0.76046954  1
  C  C31  1  0.50000000  0.34732879  0.88510124  1
  C  C32  1  0.50000000  0.40112214  0.01007525  1
  C  C33  1  0.50000000  0.39856884  0.13576056  1
  C  C34  1  0.50000000  0.39847217  0.26013058  1
  C  C35  1  0.50000000  0.39937304  0.38490704  1
  C  C36  1  0.50000000  0.40106430  0.50986732  1
  C  C37  1  0.50000000  0.40283524  0.63528868  1
  C  C38  1  0.50000000  0.40422154  0.76075618  1
  C  C39  1  0.50000000  0.40369443  0.88543846  1
  C  C40  1  0.50000000  0.42632404  0.07372952  1
  C  C41  1  0.50000000  0.42608790  0.19802395  1
  C  C42  1  0.50000000  0.42622868  0.32232821  1
  C  C43  1  0.50000000  0.42781514  0.44698356  1
  C  C44  1  0.50000000  0.42944365  0.57232968  1
  C  C45  1  0.50000000  0.43130772  0.69766744  1
  C  C46  1  0.50000000  0.43241736  0.82318376  1
  C  C47  1  0.50000000  0.43064374  0.94804756  1
  C  C48  1  0.50000000  0.48187488  0.07486779  1
  C  C49  1  0.50000000  0.48246067  0.19826391  1
  C  C50  1  0.50000000  0.48236721  0.32180613  1
  C  C51  1  0.50000000  0.48386107  0.44564300  1
  C  C52  1  0.50000000  0.48524154  0.57181513  1
  C  C53  1  0.50000000  0.48727743  0.69734470  1
  C  C54  1  0.50000000  0.48916828  0.82360250  1
  C  C55  1  0.50000000  0.48749395  0.94915468  1
  C  C56  1  0.50000000  0.50939761  0.01368719  1
  C  C57  1  0.50000000  0.50907501  0.13634567  1
  C  C58  1  0.50000000  0.50919956  0.26027048  1
  C  C59  1  0.50000000  0.50945255  0.38384412  1
  C  C60  1  0.50000000  0.51228445  0.50913954  1
  C  C61  1  0.50000000  0.51407878  0.63368378  1
  C  C62  1  0.50000000  0.51607147  0.75927394  1
  C  C63  1  0.50000000  0.51778387  0.88586717  1
  C  C64  1  0.50000000  0.56671431  0.50934129  1
  C  C65  1  0.50000000  0.56978164  0.63196584  1
  C  C66  1  0.50000000  0.57225244  0.75677944  1
  C  C67  1  0.50000000  0.57526101  0.88250758  1
  C  C68  1  0.50000000  0.59614624  0.56817361  1
  C  C69  1  0.50000000  0.59874693  0.69332190  1
  C  C70  1  0.50000000  0.60179325  0.81823727  1
  C  C71  1  0.50000000  0.60944895  0.93895828  1
  C  C72  1  0.50000000  0.65290510  0.56476296  1
  C  C73  1  0.50000000  0.65487286  0.69010525  1
  C  C74  1  0.50000000  0.65830978  0.81460795  1
  C  C75  1  0.50000000  0.66320668  0.93556835  1
  C  C76  1  0.50000000  0.68037622  0.50311100  1
  C  C77  1  0.50000000  0.68140572  0.62616582  1
  C  C78  1  0.50000000  0.68398605  0.75042604  1
  C  C79  1  0.50000000  0.68961815  0.87420492  1
  C  C80  1  0.50000000  0.73504103  0.50101484  1
  C  C81  1  0.50000000  0.73752356  0.62388110  1
  C  C82  1  0.50000000  0.74057017  0.74771195  1
  C  C83  1  0.50000000  0.74696112  0.87206144  1
  C  C84  1  0.50000000  0.76351648  0.56054710  1
  C  C85  1  0.50000000  0.76570412  0.68466467  1
  C  C86  1  0.50000000  0.77019413  0.80722975  1
  C  C87  1  0.50000000  0.77831780  0.92911041  1
  H  H88  1  0.50000000  0.19171651  0.00702898  1
  H  H89  1  0.50000000  0.19004405  0.13285629  1
  H  H90  1  0.50000000  0.18935466  0.26047952  1
  H  H91  1  0.50000000  0.19018216  0.38697394  1
  H  H92  1  0.50000000  0.19165550  0.51292342  1
  H  H93  1  0.50000000  0.19326946  0.63733012  1
  H  H94  1  0.50000000  0.19391408  0.76045310  1
  H  H95  1  0.50000000  0.19328721  0.88318164  1
  H  H96  1  0.50000000  0.80626455  0.55984555  1
  H  H97  1  0.50000000  0.80846723  0.68300895  1
  H  H98  1  0.50000000  0.81288305  0.80331368  1
  H  H99  1  0.50000000  0.82084531  0.92325707  1
  H  H100  1  0.50000000  0.55054307  0.02268572  1
  H  H101  1  0.50000000  0.55189226  0.13626558  1
  H  H102  1  0.50000000  0.55197099  0.26027253  1
  H  H103  1  0.50000000  0.55204106  0.38100115  1
  H  H104  1  0.50000000  0.58707976  0.46112286  1
  H  H105  1  0.50000000  0.59608328  0.99027225  1
  H  H106  1  0.50000000  0.68466744  0.98338679  1
  H  H107  1  0.50000000  0.65931460  0.45507890  1
  H  H108  1  0.50000000  0.75497312  0.45197887  1
  H  H109  1  0.50000000  0.76316857  0.98075218  1
