# generated using pymatgen
data_H5C16
_symmetry_space_group_name_H-M   'P 1'
_cell_length_a   10.00000000
_cell_length_b   21.36688000
_cell_length_c   19.76712471
_cell_angle_alpha   90.00000000
_cell_angle_beta   90.00000000
_cell_angle_gamma   90.00000000
_symmetry_Int_Tables_number   1
_chemical_formula_structural   H5C16
_chemical_formula_sum   'H20 C64'
_cell_volume   4223.61781607
_cell_formula_units_Z   4
loop_
 _symmetry_equiv_pos_site_id
 _symmetry_equiv_pos_as_xyz
  1  'x, y, z'
loop_
 _atom_site_type_symbol
 _atom_site_label
 _atom_site_symmetry_multiplicity
 _atom_site_fract_x
 _atom_site_fract_y
 _atom_site_fract_z
 _atom_site_occupancy
  C  C0  1  0.49999847  0.28038417  0.00371673  1
  C  C1  1  0.49999778  0.27797936  0.12941210  1
  C  C2  1  0.49999809  0.27692278  0.25584663  1
  C  C3  1  0.49999931  0.27953012  0.38251045  1
  C  C4  1  0.50000020  0.28320952  0.50758473  1
  C  C5  1  0.50000015  0.28594742  0.63115193  1
  C  C6  1  0.50000054  0.28585738  0.75449640  1
  C  C7  1  0.49999970  0.28340621  0.87880043  1
  C  C8  1  0.49999834  0.31078396  0.06714928  1
  C  C9  1  0.49999809  0.30877518  0.19289278  1
  C  C10  1  0.49999878  0.30915992  0.31851481  1
  C  C11  1  0.49999996  0.31325148  0.44428692  1
  C  C12  1  0.50000028  0.31720360  0.56865365  1
  C  C13  1  0.50000021  0.31862328  0.69271333  1
  C  C14  1  0.49999999  0.31668955  0.81723595  1
  C  C15  1  0.49999866  0.31383117  0.94204600  1
  C  C16  1  0.49999914  0.37866223  0.06786525  1
  C  C17  1  0.49999924  0.37661378  0.19307786  1
  C  C18  1  0.49999951  0.37684698  0.31778347  1
  C  C19  1  0.50000013  0.38113995  0.44357350  1
  C  C20  1  0.50000030  0.38523365  0.56804784  1
  C  C21  1  0.50000006  0.38657549  0.69257291  1
  C  C22  1  0.49999956  0.38452377  0.81781059  1
  C  C23  1  0.49999871  0.38168843  0.94292120  1
  C  C24  1  0.49999942  0.41324748  0.00605416  1
  C  C25  1  0.49999995  0.41009780  0.13091061  1
  C  C26  1  0.50000008  0.40965562  0.25531421  1
  C  C27  1  0.50000016  0.41066602  0.37963632  1
  C  C28  1  0.50000037  0.41697995  0.50526883  1
  C  C29  1  0.50000019  0.41978255  0.62995451  1
  C  C30  1  0.49999993  0.41861211  0.75562253  1
  C  C31  1  0.49999914  0.41606908  0.88088938  1
  C  C32  1  0.50000055  0.48087184  0.00759742  1
  C  C33  1  0.50000140  0.47759907  0.13162879  1
  C  C34  1  0.50000180  0.47747849  0.25499788  1
  C  C35  1  0.50000057  0.47752433  0.37828287  1
  C  C36  1  0.50000003  0.48531669  0.50382730  1
  C  C37  1  0.50000027  0.48793210  0.62915440  1
  C  C38  1  0.49999999  0.48584305  0.75591114  1
  C  C39  1  0.49999972  0.48332163  0.88171479  1
  C  C40  1  0.50000150  0.51065439  0.06986176  1
  C  C41  1  0.50000257  0.50964601  0.19314215  1
  C  C42  1  0.50000197  0.50963582  0.31667034  1
  C  C43  1  0.49999959  0.51121971  0.43914942  1
  C  C44  1  0.50000014  0.52190790  0.56674344  1
  C  C45  1  0.50000026  0.51985726  0.69384251  1
  C  C46  1  0.49999983  0.51783256  0.81971742  1
  C  C47  1  0.50000054  0.51571757  0.94435606  1
  C  C48  1  0.50000016  0.59129088  0.56971257  1
  C  C49  1  0.49999993  0.58700506  0.69625563  1
  C  C50  1  0.49999981  0.58464728  0.82149813  1
  C  C51  1  0.50000098  0.58152030  0.94415755  1
  C  C52  1  0.50000058  0.63296647  0.51369004  1
  C  C53  1  0.49999990  0.62198655  0.63457207  1
  C  C54  1  0.49999957  0.61843328  0.75968474  1
  C  C55  1  0.50000030  0.61677695  0.88536278  1
  C  C56  1  0.50000008  0.69833122  0.51814792  1
  C  C57  1  0.49999951  0.68969754  0.63896789  1
  C  C58  1  0.49999924  0.68601719  0.76269285  1
  C  C59  1  0.50000032  0.68584948  0.88798907  1
  C  C60  1  0.49999957  0.72735884  0.58023730  1
  C  C61  1  0.49999911  0.71957123  0.70212235  1
  C  C62  1  0.49999963  0.71736713  0.82500150  1
  C  C63  1  0.50000092  0.72076096  0.94697583  1
  H  H64  1  0.49999882  0.22906517  0.00198904  1
  H  H65  1  0.49999708  0.22662069  0.12849550  1
  H  H66  1  0.49999787  0.22555915  0.25604527  1
  H  H67  1  0.49999908  0.22821282  0.38478655  1
  H  H68  1  0.50000075  0.23190323  0.50987127  1
  H  H69  1  0.49999991  0.23459109  0.63195621  1
  H  H70  1  0.50000108  0.23453783  0.75342083  1
  H  H71  1  0.50000038  0.23208248  0.87728446  1
  H  H72  1  0.49999951  0.77840691  0.58534197  1
  H  H73  1  0.49999892  0.77084323  0.70371125  1
  H  H74  1  0.49999960  0.76869277  0.82471997  1
  H  H75  1  0.50000116  0.77199377  0.94361934  1
  H  H76  1  0.50000215  0.56168453  0.07340874  1
  H  H77  1  0.50000322  0.56096511  0.19327894  1
  H  H78  1  0.50000286  0.56094518  0.31659705  1
  H  H79  1  0.49999812  0.56069291  0.43029231  1
  H  H80  1  0.50000179  0.60635529  0.99231024  1
  H  H81  1  0.50000187  0.61720096  0.46208872  1
  H  H82  1  0.50000020  0.72574372  0.47125589  1
  H  H83  1  0.50000081  0.70058284  0.99780020  1
