# generated using pymatgen
data_H3C10
_symmetry_space_group_name_H-M   'P 1'
_cell_length_a   10.00000000
_cell_length_b   25.62946000
_cell_length_c   19.84828895
_cell_angle_alpha   90.00000000
_cell_angle_beta   90.00000000
_cell_angle_gamma   90.00000000
_symmetry_Int_Tables_number   1
_chemical_formula_structural   H3C10
_chemical_formula_sum   'H24 C80'
_cell_volume   5087.00927772
_cell_formula_units_Z   8
loop_
 _symmetry_equiv_pos_site_id
 _symmetry_equiv_pos_as_xyz
  1  'x, y, z'
loop_
 _atom_site_type_symbol
 _atom_site_label
 _atom_site_symmetry_multiplicity
 _atom_site_fract_x
 _atom_site_fract_y
 _atom_site_fract_z
 _atom_site_occupancy
  C  C0  1  0.50000000  0.22146652  0.52522353  1
  C  C1  1  0.50000000  0.22964105  0.64681282  1
  C  C2  1  0.50000000  0.23435101  0.76902357  1
  C  C3  1  0.50000000  0.23687959  0.89283190  1
  C  C4  1  0.50000000  0.25276925  0.58213069  1
  C  C5  1  0.50000000  0.25938529  0.70606438  1
  C  C6  1  0.50000000  0.26264020  0.82952051  1
  C  C7  1  0.50000000  0.26559911  0.95198183  1
  C  C8  1  0.50000000  0.31013664  0.57983191  1
  C  C9  1  0.50000000  0.31602369  0.70311027  1
  C  C10  1  0.50000000  0.31880215  0.82685135  1
  C  C11  1  0.50000000  0.32024945  0.94954283  1
  C  C12  1  0.50000000  0.33637513  0.51859250  1
  C  C13  1  0.50000000  0.34159247  0.63908980  1
  C  C14  1  0.50000000  0.34530174  0.76305146  1
  C  C15  1  0.50000000  0.34742844  0.88788415  1
  C  C16  1  0.50000000  0.39012305  0.51503002  1
  C  C17  1  0.50000000  0.39813941  0.63523211  1
  C  C18  1  0.50000000  0.40149801  0.75959852  1
  C  C19  1  0.50000000  0.40417919  0.88409625  1
  C  C20  1  0.50000000  0.42445317  0.57104232  1
  C  C21  1  0.50000000  0.42789973  0.69630895  1
  C  C22  1  0.50000000  0.43060389  0.82056486  1
  C  C23  1  0.50000000  0.43366992  0.94249081  1
  C  C24  1  0.50000000  0.49002543  0.06789978  1
  C  C25  1  0.50000000  0.48921703  0.19194496  1
  C  C26  1  0.50000000  0.48966122  0.31612492  1
  C  C27  1  0.50000000  0.48976713  0.43893732  1
  C  C28  1  0.50000000  0.48186845  0.56704589  1
  C  C29  1  0.50000000  0.48410872  0.69357292  1
  C  C30  1  0.50000000  0.48639068  0.81870445  1
  C  C31  1  0.50000000  0.48806810  0.94273198  1
  C  C32  1  0.50000000  0.51601832  0.00634491  1
  C  C33  1  0.50000000  0.51622670  0.13049354  1
  C  C34  1  0.50000000  0.51591224  0.25392311  1
  C  C35  1  0.50000000  0.51692263  0.37743474  1
  C  C36  1  0.50000000  0.51175344  0.50336192  1
  C  C37  1  0.50000000  0.51063658  0.62900071  1
  C  C38  1  0.50000000  0.51322196  0.75523546  1
  C  C39  1  0.50000000  0.51531178  0.88037896  1
  C  C40  1  0.50000000  0.57208197  0.00517429  1
  C  C41  1  0.50000000  0.57236640  0.13025962  1
  C  C42  1  0.50000000  0.57240866  0.25412845  1
  C  C43  1  0.50000000  0.57255383  0.37837218  1
  C  C44  1  0.50000000  0.56866386  0.50426088  1
  C  C45  1  0.50000000  0.56743383  0.62918334  1
  C  C46  1  0.50000000  0.56945125  0.75502894  1
  C  C47  1  0.50000000  0.57131707  0.88004634  1
  C  C48  1  0.50000000  0.59915820  0.06778945  1
  C  C49  1  0.50000000  0.60011271  0.19229762  1
  C  C50  1  0.50000000  0.59989558  0.31628908  1
  C  C51  1  0.50000000  0.59782834  0.44204680  1
  C  C52  1  0.50000000  0.59575167  0.56680596  1
  C  C53  1  0.50000000  0.59568870  0.69155934  1
  C  C54  1  0.50000000  0.59843030  0.81739403  1
  C  C55  1  0.50000000  0.59947074  0.94230139  1
  C  C56  1  0.50000000  0.65515386  0.06787918  1
  C  C57  1  0.50000000  0.65665027  0.19228250  1
  C  C58  1  0.50000000  0.65598638  0.31647616  1
  C  C59  1  0.50000000  0.65408141  0.44158227  1
  C  C60  1  0.50000000  0.65218302  0.56680242  1
  C  C61  1  0.50000000  0.65190250  0.69168769  1
  C  C62  1  0.50000000  0.65503137  0.81775203  1
  C  C63  1  0.50000000  0.65599374  0.94247373  1
  C  C64  1  0.50000000  0.68107401  0.00524249  1
  C  C65  1  0.50000000  0.68251960  0.12944042  1
  C  C66  1  0.50000000  0.68316941  0.25469333  1
  C  C67  1  0.50000000  0.68099226  0.38000150  1
  C  C68  1  0.50000000  0.68108574  0.50530494  1
  C  C69  1  0.50000000  0.67964797  0.62915072  1
  C  C70  1  0.50000000  0.68015402  0.75320947  1
  C  C71  1  0.50000000  0.68439153  0.87940190  1
  C  C72  1  0.50000000  0.73661521  0.50716517  1
  C  C73  1  0.50000000  0.73582954  0.62885956  1
  C  C74  1  0.50000000  0.73620551  0.75123654  1
  C  C75  1  0.50000000  0.74231992  0.87635291  1
  C  C76  1  0.50000000  0.76334765  0.56666960  1
  C  C77  1  0.50000000  0.76289474  0.68940351  1
  C  C78  1  0.50000000  0.76451763  0.81079732  1
  C  C79  1  0.50000000  0.78121565  0.92591863  1
  H  H80  1  0.50000000  0.17891035  0.53072821  1
  H  H81  1  0.50000000  0.18695549  0.65070628  1
  H  H82  1  0.50000000  0.19158782  0.77090094  1
  H  H83  1  0.50000000  0.19411293  0.89392543  1
  H  H84  1  0.50000000  0.80610672  0.56741721  1
  H  H85  1  0.50000000  0.80567366  0.68906858  1
  H  H86  1  0.50000000  0.80715739  0.80685949  1
  H  H87  1  0.50000000  0.82163781  0.90776118  1
  H  H88  1  0.50000000  0.23677119  0.47382509  1
  H  H89  1  0.50000000  0.24587990  1.00098066  1
  H  H90  1  0.50000000  0.34148456  0.99731116  1
  H  H91  1  0.50000000  0.31471129  0.47111467  1
  H  H92  1  0.50000000  0.40361043  0.46400778  1
  H  H93  1  0.50000000  0.41338896  0.99053373  1
  H  H94  1  0.50000000  0.44741468  0.06993200  1
  H  H95  1  0.50000000  0.44641578  0.19177062  1
  H  H96  1  0.50000000  0.44685299  0.31658624  1
  H  H97  1  0.50000000  0.44857053  0.43025331  1
  H  H98  1  0.50000000  0.72303685  0.00760198  1
  H  H99  1  0.50000000  0.72531264  0.12848255  1
  H  H100  1  0.50000000  0.72599588  0.25492685  1
  H  H101  1  0.50000000  0.72362352  0.37970012  1
  H  H102  1  0.50000000  0.75875076  0.46019251  1
  H  H103  1  0.50000000  0.77824660  0.98044065  1
