# generated using pymatgen
data_HC4
_symmetry_space_group_name_H-M   'P 1'
_cell_length_a   10.00000000
_cell_length_b   25.62946000
_cell_length_c   19.81582856
_cell_angle_alpha   90.00000000
_cell_angle_beta   90.00000000
_cell_angle_gamma   90.00000000
_symmetry_Int_Tables_number   1
_chemical_formula_structural   HC4
_chemical_formula_sum   'H22 C88'
_cell_volume   5078.68985443
_cell_formula_units_Z   22
loop_
 _symmetry_equiv_pos_site_id
 _symmetry_equiv_pos_as_xyz
  1  'x, y, z'
loop_
 _atom_site_type_symbol
 _atom_site_label
 _atom_site_symmetry_multiplicity
 _atom_site_fract_x
 _atom_site_fract_y
 _atom_site_fract_z
 _atom_site_occupancy
  C  C0  1  0.50000036  0.21918819  0.55205229  1
  C  C1  1  0.50000055  0.23536327  0.66727342  1
  C  C2  1  0.50000002  0.23656648  0.78907913  1
  C  C3  1  0.49999952  0.23613411  0.91265657  1
  C  C4  1  0.50000053  0.25797491  0.60177473  1
  C  C5  1  0.50000015  0.26338367  0.72712662  1
  C  C6  1  0.49999962  0.26340896  0.85005456  1
  C  C7  1  0.49999938  0.26287764  0.97246828  1
  C  C8  1  0.49999980  0.31980242  0.09955194  1
  C  C9  1  0.49999982  0.31897948  0.22401609  1
  C  C10  1  0.49999951  0.31929406  0.34923639  1
  C  C11  1  0.49999979  0.32020712  0.47342471  1
  C  C12  1  0.50000031  0.31598181  0.59894806  1
  C  C13  1  0.49999999  0.31941182  0.72506976  1
  C  C14  1  0.49999966  0.31948146  0.84963401  1
  C  C15  1  0.49999965  0.31840479  0.97413765  1
  C  C16  1  0.49999989  0.34606417  0.03769535  1
  C  C17  1  0.49999979  0.34606308  0.16215727  1
  C  C18  1  0.49999950  0.34534089  0.28651913  1
  C  C19  1  0.49999970  0.34648197  0.41105957  1
  C  C20  1  0.50000001  0.34500215  0.53646275  1
  C  C21  1  0.50000018  0.34517245  0.66080143  1
  C  C22  1  0.49999996  0.34725650  0.78677682  1
  C  C23  1  0.49999991  0.34674832  0.91217697  1
  C  C24  1  0.50000016  0.40222362  0.03697125  1
  C  C25  1  0.49999975  0.40221439  0.16183520  1
  C  C26  1  0.49999956  0.40164988  0.28645833  1
  C  C27  1  0.49999989  0.40239970  0.41149179  1
  C  C28  1  0.49999996  0.40160479  0.53704119  1
  C  C29  1  0.50000011  0.40187600  0.66123415  1
  C  C30  1  0.50000041  0.40319343  0.78650927  1
  C  C31  1  0.50000054  0.40279308  0.91187079  1
  C  C32  1  0.50000009  0.42967087  0.09948475  1
  C  C33  1  0.49999988  0.42938637  0.22435803  1
  C  C34  1  0.49999994  0.42916005  0.34870403  1
  C  C35  1  0.49999999  0.42937018  0.47436586  1
  C  C36  1  0.49999997  0.42999473  0.59894473  1
  C  C37  1  0.50000032  0.43046358  0.72353753  1
  C  C38  1  0.50000070  0.43056810  0.84922211  1
  C  C39  1  0.50000051  0.43011652  0.97458301  1
  C  C40  1  0.50000027  0.48561573  0.09951200  1
  C  C41  1  0.50000035  0.48519687  0.22429909  1
  C  C42  1  0.50000021  0.48465789  0.34847668  1
  C  C43  1  0.50000003  0.48538645  0.47430933  1
  C  C44  1  0.49999990  0.48648578  0.59886004  1
  C  C45  1  0.50000012  0.48699445  0.72337277  1
  C  C46  1  0.50000037  0.48654754  0.84905447  1
  C  C47  1  0.50000030  0.48599102  0.97455251  1
  C  C48  1  0.50000019  0.51343931  0.03716459  1
  C  C49  1  0.50000047  0.51276116  0.16194111  1
  C  C50  1  0.50000060  0.51257294  0.28643471  1
  C  C51  1  0.50000018  0.51144521  0.41100794  1
  C  C52  1  0.49999994  0.51408746  0.53661171  1
  C  C53  1  0.49999979  0.51525174  0.66092284  1
  C  C54  1  0.49999993  0.51445989  0.78635187  1
  C  C55  1  0.49999998  0.51373585  0.91182704  1
  C  C56  1  0.49999998  0.56948366  0.03816230  1
  C  C57  1  0.50000032  0.56890227  0.16237931  1
  C  C58  1  0.50000059  0.56891147  0.28637186  1
  C  C59  1  0.50000026  0.56697566  0.41008774  1
  C  C60  1  0.49999991  0.57080041  0.53560522  1
  C  C61  1  0.49999949  0.57213124  0.66029330  1
  C  C62  1  0.49999932  0.57050121  0.78651325  1
  C  C63  1  0.49999943  0.56958847  0.91209676  1
  C  C64  1  0.49999999  0.59547026  0.09988437  1
  C  C65  1  0.50000022  0.59570120  0.22422620  1
  C  C66  1  0.50000042  0.59474881  0.34890895  1
  C  C67  1  0.50000009  0.59356995  0.47168182  1
  C  C68  1  0.49999962  0.60100865  0.59815579  1
  C  C69  1  0.49999919  0.59887874  0.72450177  1
  C  C70  1  0.49999921  0.59776369  0.84995160  1
  C  C71  1  0.49999971  0.59735429  0.97437231  1
  C  C72  1  0.49999963  0.65887035  0.60058066  1
  C  C73  1  0.49999931  0.65496108  0.72659609  1
  C  C74  1  0.49999955  0.65350824  0.85131428  1
  C  C75  1  0.50000014  0.65199730  0.97351445  1
  C  C76  1  0.49999992  0.69407078  0.54488313  1
  C  C77  1  0.49999964  0.68433588  0.66519666  1
  C  C78  1  0.49999963  0.68150662  0.78964047  1
  C  C79  1  0.50000003  0.68081737  0.91457010  1
  C  C80  1  0.49999991  0.74849954  0.54941118  1
  C  C81  1  0.49999999  0.74081727  0.66959132  1
  C  C82  1  0.50000014  0.73790944  0.79265092  1
  C  C83  1  0.50000026  0.73831298  0.91721951  1
  C  C84  1  0.50000000  0.77255710  0.61135093  1
  C  C85  1  0.50000040  0.76587429  0.73234648  1
  C  C86  1  0.50000041  0.76445614  0.85445744  1
  C  C87  1  0.50000016  0.76721499  0.97622086  1
  H  H88  1  0.50000027  0.17879278  0.57035835  1
  H  H89  1  0.50000077  0.19267747  0.67073998  1
  H  H90  1  0.50000001  0.19378713  0.78899213  1
  H  H91  1  0.49999953  0.19335866  0.91194862  1
  H  H92  1  0.50000014  0.81507232  0.61686903  1
  H  H93  1  0.50000071  0.80864303  0.73372906  1
  H  H94  1  0.50000059  0.80723768  0.85365554  1
  H  H95  1  0.50000017  0.80990836  0.97316777  1
  H  H96  1  0.50000015  0.22226786  0.49747165  1
  H  H97  1  0.49999937  0.24077946  0.01963557  1
  H  H98  1  0.49999975  0.27717608  0.10114394  1
  H  H99  1  0.50000018  0.27616714  0.22348794  1
  H  H100  1  0.49999962  0.27649879  0.34976301  1
  H  H101  1  0.49999973  0.27823203  0.47080743  1
  H  H102  1  0.49999969  0.63809315  0.10193465  1
  H  H103  1  0.49999963  0.63852931  0.22419972  1
  H  H104  1  0.50000006  0.63754710  0.35011506  1
  H  H105  1  0.50000004  0.63487214  0.46493533  1
  H  H106  1  0.50000063  0.67306955  0.02122825  1
  H  H107  1  0.50000020  0.68220892  0.49290047  1
  H  H108  1  0.49999996  0.77105102  0.50242764  1
  H  H109  1  0.49999993  0.75010122  0.02674049  1
