# generated using pymatgen
data_HC4
_symmetry_space_group_name_H-M   'P 1'
_cell_length_a   10.00000000
_cell_length_b   21.36688000
_cell_length_c   19.75896776
_cell_angle_alpha   90.00000000
_cell_angle_beta   90.00000000
_cell_angle_gamma   90.00000000
_symmetry_Int_Tables_number   1
_chemical_formula_structural   HC4
_chemical_formula_sum   'H18 C72'
_cell_volume   4221.87493030
_cell_formula_units_Z   18
loop_
 _symmetry_equiv_pos_site_id
 _symmetry_equiv_pos_as_xyz
  1  'x, y, z'
loop_
 _atom_site_type_symbol
 _atom_site_label
 _atom_site_symmetry_multiplicity
 _atom_site_fract_x
 _atom_site_fract_y
 _atom_site_fract_z
 _atom_site_occupancy
  C  C0  1  0.50000000  0.26476570  0.51952863  1
  C  C1  1  0.50000000  0.28294457  0.63566275  1
  C  C2  1  0.50000000  0.28381750  0.75836265  1
  C  C3  1  0.50000000  0.28348254  0.88277873  1
  C  C4  1  0.50000000  0.31059968  0.57015715  1
  C  C5  1  0.50000000  0.31603689  0.69611135  1
  C  C6  1  0.50000000  0.31585042  0.81976460  1
  C  C7  1  0.50000000  0.31572064  0.94276098  1
  C  C8  1  0.50000000  0.38556801  0.07029495  1
  C  C9  1  0.50000000  0.38604402  0.19441293  1
  C  C10  1  0.50000000  0.38664979  0.31867803  1
  C  C11  1  0.50000000  0.38667169  0.44216765  1
  C  C12  1  0.50000000  0.38011508  0.56784176  1
  C  C13  1  0.50000000  0.38322278  0.69447303  1
  C  C14  1  0.50000000  0.38310220  0.81955233  1
  C  C15  1  0.50000000  0.38236963  0.94453776  1
  C  C16  1  0.50000000  0.41625763  0.00799254  1
  C  C17  1  0.50000000  0.41805795  0.13246045  1
  C  C18  1  0.50000000  0.41832631  0.25643273  1
  C  C19  1  0.50000000  0.41914661  0.38037347  1
  C  C20  1  0.50000000  0.41556092  0.50551559  1
  C  C21  1  0.50000000  0.41439306  0.63013736  1
  C  C22  1  0.50000000  0.41626195  0.75654705  1
  C  C23  1  0.50000000  0.41598424  0.88226470  1
  C  C24  1  0.50000000  0.48384361  0.00709848  1
  C  C25  1  0.50000000  0.48550638  0.13198052  1
  C  C26  1  0.50000000  0.48599487  0.25644977  1
  C  C27  1  0.50000000  0.48624854  0.38095930  1
  C  C28  1  0.50000000  0.48344503  0.50635782  1
  C  C29  1  0.50000000  0.48219814  0.63089756  1
  C  C30  1  0.50000000  0.48320876  0.75662877  1
  C  C31  1  0.50000000  0.48326324  0.88200778  1
  C  C32  1  0.50000000  0.51778945  0.06931817  1
  C  C33  1  0.50000000  0.51894278  0.19419367  1
  C  C34  1  0.50000000  0.51931717  0.31868746  1
  C  C35  1  0.50000000  0.51782377  0.44405649  1
  C  C36  1  0.50000000  0.51630065  0.56875412  1
  C  C37  1  0.50000000  0.51566450  0.69362911  1
  C  C38  1  0.50000000  0.51619750  0.81936107  1
  C  C39  1  0.50000000  0.51668556  0.94446776  1
  C  C40  1  0.50000000  0.58510772  0.06911586  1
  C  C41  1  0.50000000  0.58612159  0.19411315  1
  C  C42  1  0.50000000  0.58635001  0.31892429  1
  C  C43  1  0.50000000  0.58512211  0.44424166  1
  C  C44  1  0.50000000  0.58372885  0.56908677  1
  C  C45  1  0.50000000  0.58307713  0.69388221  1
  C  C46  1  0.50000000  0.58336429  0.81917224  1
  C  C47  1  0.50000000  0.58397796  0.94421389  1
  C  C48  1  0.50000000  0.61764959  0.00643787  1
  C  C49  1  0.50000000  0.61867461  0.13137605  1
  C  C50  1  0.50000000  0.61943637  0.25645952  1
  C  C51  1  0.50000000  0.61870240  0.38183598  1
  C  C52  1  0.50000000  0.61757205  0.50696423  1
  C  C53  1  0.50000000  0.61657973  0.63168805  1
  C  C54  1  0.50000000  0.61616921  0.75648838  1
  C  C55  1  0.50000000  0.61670759  0.88152644  1
  C  C56  1  0.50000000  0.68540440  0.00617019  1
  C  C57  1  0.50000000  0.68642313  0.13122098  1
  C  C58  1  0.50000000  0.68715505  0.25651711  1
  C  C59  1  0.50000000  0.68646228  0.38199018  1
  C  C60  1  0.50000000  0.68537632  0.50711134  1
  C  C61  1  0.50000000  0.68438984  0.63188379  1
  C  C62  1  0.50000000  0.68395213  0.75656204  1
  C  C63  1  0.50000000  0.68448307  0.88134103  1
  C  C64  1  0.50000000  0.71783198  0.06842034  1
  C  C65  1  0.50000000  0.71866504  0.19368093  1
  C  C66  1  0.50000000  0.71865227  0.31943584  1
  C  C67  1  0.50000000  0.71784062  0.44484774  1
  C  C68  1  0.50000000  0.71684155  0.56977480  1
  C  C69  1  0.50000000  0.71612664  0.69435366  1
  C  C70  1  0.50000000  0.71612632  0.81880070  1
  C  C71  1  0.50000000  0.71691042  0.94348149  1
  H  H72  1  0.50000000  0.21602202  0.53700521  1
  H  H73  1  0.50000000  0.23170521  0.63817269  1
  H  H74  1  0.50000000  0.23251380  0.75789380  1
  H  H75  1  0.50000000  0.23217280  0.88227850  1
  H  H76  1  0.50000000  0.76917628  0.06767761  1
  H  H77  1  0.50000000  0.76997936  0.19321432  1
  H  H78  1  0.50000000  0.76999208  0.31984090  1
  H  H79  1  0.50000000  0.76918233  0.44567274  1
  H  H80  1  0.50000000  0.76817850  0.57042312  1
  H  H81  1  0.50000000  0.76745084  0.69463045  1
  H  H82  1  0.50000000  0.76747278  0.81837970  1
  H  H83  1  0.50000000  0.76827813  0.94277543  1
  H  H84  1  0.50000000  0.26936176  0.46482725  1
  H  H85  1  0.50000000  0.28917484  0.99000565  1
  H  H86  1  0.50000000  0.33446451  0.07275298  1
  H  H87  1  0.50000000  0.33470567  0.19459333  1
  H  H88  1  0.50000000  0.33537054  0.31887813  1
  H  H89  1  0.50000000  0.33639438  0.43861845  1
