# generated using pymatgen
data_HC4
_symmetry_space_group_name_H-M   'P 1'
_cell_length_a   10.00000000
_cell_length_b   25.62946000
_cell_length_c   19.82149852
_cell_angle_alpha   90.00000000
_cell_angle_beta   90.00000000
_cell_angle_gamma   90.00000000
_symmetry_Int_Tables_number   1
_chemical_formula_structural   HC4
_chemical_formula_sum   'H24 C96'
_cell_volume   5080.14303578
_cell_formula_units_Z   24
loop_
 _symmetry_equiv_pos_site_id
 _symmetry_equiv_pos_as_xyz
  1  'x, y, z'
loop_
 _atom_site_type_symbol
 _atom_site_label
 _atom_site_symmetry_multiplicity
 _atom_site_fract_x
 _atom_site_fract_y
 _atom_site_fract_z
 _atom_site_occupancy
  C  C0  1  0.50000000  0.82025675  0.52229559  1
  C  C1  1  0.50000000  0.81212494  0.64374552  1
  C  C2  1  0.50000000  0.80769037  0.76591172  1
  C  C3  1  0.50000000  0.80570124  0.88966727  1
  C  C4  1  0.50000000  0.17748018  0.51904763  1
  C  C5  1  0.50000000  0.19343884  0.63443135  1
  C  C6  1  0.50000000  0.19453723  0.75616776  1
  C  C7  1  0.50000000  0.19392005  0.87959624  1
  C  C8  1  0.50000000  0.21611447  0.56903561  1
  C  C9  1  0.50000000  0.22142888  0.69433135  1
  C  C10  1  0.50000000  0.22129236  0.81716582  1
  C  C11  1  0.50000000  0.22053783  0.93945464  1
  C  C12  1  0.50000000  0.27705415  0.06701808  1
  C  C13  1  0.50000000  0.27631834  0.19181777  1
  C  C14  1  0.50000000  0.27684055  0.31725105  1
  C  C15  1  0.50000000  0.27828406  0.44130937  1
  C  C16  1  0.50000000  0.27414017  0.56661290  1
  C  C17  1  0.50000000  0.27748372  0.69253966  1
  C  C18  1  0.50000000  0.27736748  0.81696964  1
  C  C19  1  0.50000000  0.27597671  0.94144257  1
  C  C20  1  0.50000000  0.30338970  0.00513409  1
  C  C21  1  0.50000000  0.30325143  0.12978307  1
  C  C22  1  0.50000000  0.30268349  0.25435690  1
  C  C23  1  0.50000000  0.30434084  0.37888228  1
  C  C24  1  0.50000000  0.30319131  0.50425776  1
  C  C25  1  0.50000000  0.30333517  0.62841162  1
  C  C26  1  0.50000000  0.30526409  0.75425382  1
  C  C27  1  0.50000000  0.30453748  0.87954181  1
  C  C28  1  0.50000000  0.35957890  0.00445988  1
  C  C29  1  0.50000000  0.35941532  0.12945002  1
  C  C30  1  0.50000000  0.35900834  0.25417103  1
  C  C31  1  0.50000000  0.36024607  0.37930768  1
  C  C32  1  0.50000000  0.35980029  0.50483586  1
  C  C33  1  0.50000000  0.36005892  0.62886923  1
  C  C34  1  0.50000000  0.36121016  0.75400708  1
  C  C35  1  0.50000000  0.36062037  0.87920923  1
  C  C36  1  0.50000000  0.38692072  0.06707127  1
  C  C37  1  0.50000000  0.38663106  0.19197950  1
  C  C38  1  0.50000000  0.38670397  0.31636986  1
  C  C39  1  0.50000000  0.38741193  0.44216707  1
  C  C40  1  0.50000000  0.38829610  0.56668084  1
  C  C41  1  0.50000000  0.38860010  0.69111591  1
  C  C42  1  0.50000000  0.38855374  0.81670301  1
  C  C43  1  0.50000000  0.38770428  0.94209614  1
  C  C44  1  0.50000000  0.44285941  0.06713995  1
  C  C45  1  0.50000000  0.44244947  0.19195643  1
  C  C46  1  0.50000000  0.44216854  0.31615457  1
  C  C47  1  0.50000000  0.44339487  0.44213185  1
  C  C48  1  0.50000000  0.44481409  0.56660331  1
  C  C49  1  0.50000000  0.44514535  0.69096926  1
  C  C50  1  0.50000000  0.44455061  0.81655088  1
  C  C51  1  0.50000000  0.44356470  0.94208717  1
  C  C52  1  0.50000000  0.47079490  0.00483403  1
  C  C53  1  0.50000000  0.46997395  0.12959628  1
  C  C54  1  0.50000000  0.46992895  0.25404257  1
  C  C55  1  0.50000000  0.46907609  0.37865486  1
  C  C56  1  0.50000000  0.47235177  0.50431588  1
  C  C57  1  0.50000000  0.47358362  0.62874114  1
  C  C58  1  0.50000000  0.47265478  0.75391320  1
  C  C59  1  0.50000000  0.47152597  0.87937089  1
  C  C60  1  0.50000000  0.52680240  0.00600917  1
  C  C61  1  0.50000000  0.52610116  0.13010906  1
  C  C62  1  0.50000000  0.52624679  0.25398465  1
  C  C63  1  0.50000000  0.52453399  0.37761157  1
  C  C64  1  0.50000000  0.52917063  0.50318104  1
  C  C65  1  0.50000000  0.53052802  0.62826983  1
  C  C66  1  0.50000000  0.52875815  0.75415265  1
  C  C67  1  0.50000000  0.52732454  0.87967606  1
  C  C68  1  0.50000000  0.55272675  0.06770811  1
  C  C69  1  0.50000000  0.55292391  0.19184583  1
  C  C70  1  0.50000000  0.55220394  0.31643250  1
  C  C71  1  0.50000000  0.55145787  0.43899061  1
  C  C72  1  0.50000000  0.55934504  0.56618096  1
  C  C73  1  0.50000000  0.55766003  0.69231482  1
  C  C74  1  0.50000000  0.55584503  0.81763955  1
  C  C75  1  0.50000000  0.55474478  0.94219304  1
  C  C76  1  0.50000000  0.61687288  0.56914966  1
  C  C77  1  0.50000000  0.61390268  0.69454470  1
  C  C78  1  0.50000000  0.61161223  0.81905891  1
  C  C79  1  0.50000000  0.60912426  0.94151291  1
  C  C80  1  0.50000000  0.65118410  0.51284987  1
  C  C81  1  0.50000000  0.64343970  0.63320246  1
  C  C82  1  0.50000000  0.64055312  0.75776180  1
  C  C83  1  0.50000000  0.63824584  0.88254816  1
  C  C84  1  0.50000000  0.70491803  0.51610248  1
  C  C85  1  0.50000000  0.70001451  0.63666562  1
  C  C86  1  0.50000000  0.69676488  0.76077763  1
  C  C87  1  0.50000000  0.69502593  0.88569843  1
  C  C88  1  0.50000000  0.73140745  0.57722626  1
  C  C89  1  0.50000000  0.72583053  0.70054764  1
  C  C90  1  0.50000000  0.72343967  0.82441484  1
  C  C91  1  0.50000000  0.72262286  0.94711938  1
  C  C92  1  0.50000000  0.78879460  0.57915002  1
  C  C93  1  0.50000000  0.78246906  0.70307796  1
  C  C94  1  0.50000000  0.77957315  0.82657467  1
  C  C95  1  0.50000000  0.77729936  0.94911913  1
  H  H96  1  0.50000000  0.86278552  0.52835651  1
  H  H97  1  0.50000000  0.85482094  0.64771135  1
  H  H98  1  0.50000000  0.85046262  0.76747038  1
  H  H99  1  0.50000000  0.84847507  0.89008211  1
  H  H100  1  0.50000000  0.13699269  0.53698724  1
  H  H101  1  0.50000000  0.15076051  0.63779911  1
  H  H102  1  0.50000000  0.15177606  0.75601821  1
  H  H103  1  0.50000000  0.15116927  0.87861757  1
  H  H104  1  0.50000000  0.80532376  0.47067778  1
  H  H105  1  0.50000000  0.18070501  0.46448496  1
  H  H106  1  0.50000000  0.19832101  0.98646797  1
  H  H107  1  0.50000000  0.23440794  0.06854980  1
  H  H108  1  0.50000000  0.23352926  0.19151063  1
  H  H109  1  0.50000000  0.23400696  0.31820811  1
  H  H110  1  0.50000000  0.23634253  0.43869982  1
  H  H111  1  0.50000000  0.59535101  0.07000561  1
  H  H112  1  0.50000000  0.59571389  0.19183276  1
  H  H113  1  0.50000000  0.59500442  0.31738862  1
  H  H114  1  0.50000000  0.59260797  0.43070283  1
  H  H115  1  0.50000000  0.62978200  0.98943992  1
  H  H116  1  0.50000000  0.63824900  0.46149769  1
  H  H117  1  0.50000000  0.72632907  0.46834164  1
  H  H118  1  0.50000000  0.70160359  0.99505907  1
  H  H119  1  0.50000000  0.79738260  0.99792097  1
