# generated using pymatgen
data_H13C44
_symmetry_space_group_name_H-M   'P 1'
_cell_length_a   10.00000000
_cell_length_b   25.62946000
_cell_length_c   19.77881198
_cell_angle_alpha   90.00000000
_cell_angle_beta   90.00000000
_cell_angle_gamma   90.00000000
_symmetry_Int_Tables_number   1
_chemical_formula_structural   H13C44
_chemical_formula_sum   'H26 C88'
_cell_volume   5069.20270383
_cell_formula_units_Z   2
loop_
 _symmetry_equiv_pos_site_id
 _symmetry_equiv_pos_as_xyz
  1  'x, y, z'
loop_
 _atom_site_type_symbol
 _atom_site_label
 _atom_site_symmetry_multiplicity
 _atom_site_fract_x
 _atom_site_fract_y
 _atom_site_fract_z
 _atom_site_occupancy
  C  C0  1  0.50000000  0.81967289  0.52625698  1
  C  C1  1  0.50000000  0.81254805  0.64870165  1
  C  C2  1  0.50000000  0.80857590  0.77270876  1
  C  C3  1  0.50000000  0.80537378  0.89730320  1
  C  C4  1  0.50000000  0.18984232  -0.00107039  1
  C  C5  1  0.50000000  0.18770478  0.12487006  1
  C  C6  1  0.50000000  0.18738336  0.25150839  1
  C  C7  1  0.50000000  0.18991607  0.37818008  1
  C  C8  1  0.50000000  0.19320427  0.50301635  1
  C  C9  1  0.50000000  0.19546730  0.62625706  1
  C  C10  1  0.50000000  0.19498643  0.74942158  1
  C  C11  1  0.50000000  0.19257495  0.87369485  1
  C  C12  1  0.50000000  0.21500080  0.06251913  1
  C  C13  1  0.50000000  0.21357175  0.18832371  1
  C  C14  1  0.50000000  0.21438719  0.31410586  1
  C  C15  1  0.50000000  0.21818063  0.43980007  1
  C  C16  1  0.50000000  0.22163094  0.56392077  1
  C  C17  1  0.50000000  0.22249103  0.68784143  1
  C  C18  1  0.50000000  0.22053395  0.81221827  1
  C  C19  1  0.50000000  0.21777357  0.93711004  1
  C  C20  1  0.50000000  0.27160704  0.06316778  1
  C  C21  1  0.50000000  0.27015038  0.18842263  1
  C  C22  1  0.50000000  0.27077952  0.31329638  1
  C  C23  1  0.50000000  0.27475049  0.43906913  1
  C  C24  1  0.50000000  0.27831460  0.56339887  1
  C  C25  1  0.50000000  0.27911456  0.68767702  1
  C  C26  1  0.50000000  0.27710299  0.81276911  1
  C  C27  1  0.50000000  0.27433269  0.93801671  1
  C  C28  1  0.50000000  0.30042544  0.00127607  1
  C  C29  1  0.50000000  0.29793144  0.12616831  1
  C  C30  1  0.50000000  0.29786953  0.25067344  1
  C  C31  1  0.50000000  0.29913853  0.37505521  1
  C  C32  1  0.50000000  0.30475880  0.50065903  1
  C  C33  1  0.50000000  0.30704551  0.62540247  1
  C  C34  1  0.50000000  0.30576273  0.75072955  1
  C  C35  1  0.50000000  0.30319926  0.87587394  1
  C  C36  1  0.50000000  0.35677628  0.00294436  1
  C  C37  1  0.50000000  0.35422590  0.12690195  1
  C  C38  1  0.50000000  0.35443542  0.25032550  1
  C  C39  1  0.50000000  0.35482153  0.37358909  1
  C  C40  1  0.50000000  0.36177172  0.49919105  1
  C  C41  1  0.50000000  0.36382186  0.62486677  1
  C  C42  1  0.50000000  0.36172736  0.75110969  1
  C  C43  1  0.50000000  0.35910597  0.87667346  1
  C  C44  1  0.50000000  0.38171871  0.06504162  1
  C  C45  1  0.50000000  0.38104319  0.18829362  1
  C  C46  1  0.50000000  0.38147229  0.31191490  1
  C  C47  1  0.50000000  0.38303688  0.43441414  1
  C  C48  1  0.50000000  0.39225909  0.56260217  1
  C  C49  1  0.50000000  0.39066748  0.68925038  1
  C  C50  1  0.50000000  0.38814551  0.81485971  1
  C  C51  1  0.50000000  0.38584004  0.93956551  1
  C  C52  1  0.50000000  0.44958735  0.56616619  1
  C  C53  1  0.50000000  0.44673144  0.69181554  1
  C  C54  1  0.50000000  0.44386044  0.81649097  1
  C  C55  1  0.50000000  0.44028701  0.93933678  1
  C  C56  1  0.50000000  0.48355691  0.50951331  1
  C  C57  1  0.50000000  0.47622153  0.63047191  1
  C  C58  1  0.50000000  0.47330674  0.75531480  1
  C  C59  1  0.50000000  0.46991915  0.88031015  1
  C  C60  1  0.50000000  0.53709612  0.51300109  1
  C  C61  1  0.50000000  0.53267425  0.63430610  1
  C  C62  1  0.50000000  0.52944089  0.75850968  1
  C  C63  1  0.50000000  0.52646326  0.88337356  1
  C  C64  1  0.50000000  0.56357505  0.57461034  1
  C  C65  1  0.50000000  0.55910360  0.69816389  1
  C  C66  1  0.50000000  0.55585175  0.82246001  1
  C  C67  1  0.50000000  0.55343747  0.94536922  1
  C  C68  1  0.50000000  0.61997077  0.57652618  1
  C  C69  1  0.50000000  0.61548954  0.70085509  1
  C  C70  1  0.50000000  0.61180600  0.82527443  1
  C  C71  1  0.50000000  0.60730312  0.94805522  1
  C  C72  1  0.50000000  0.65035559  0.51716239  1
  C  C73  1  0.50000000  0.64582401  0.63996041  1
  C  C74  1  0.50000000  0.64155287  0.76405834  1
  C  C75  1  0.50000000  0.63780251  0.88903077  1
  C  C76  1  0.50000000  0.70437212  0.51966587  1
  C  C77  1  0.50000000  0.70176383  0.64242070  1
  C  C78  1  0.50000000  0.69769544  0.76692823  1
  C  C79  1  0.50000000  0.69460852  0.89226273  1
  C  C80  1  0.50000000  0.73143801  0.58129887  1
  C  C81  1  0.50000000  0.72730356  0.70659314  1
  C  C82  1  0.50000000  0.72375302  0.83102048  1
  C  C83  1  0.50000000  0.72180865  0.95409284  1
  C  C84  1  0.50000000  0.78885459  0.58375293  1
  C  C85  1  0.50000000  0.78382065  0.70922162  1
  C  C86  1  0.50000000  0.77998900  0.83349165  1
  C  C87  1  0.50000000  0.77647634  0.95654068  1
  H  H88  1  0.50000000  0.86225890  0.53074809  1
  H  H89  1  0.50000000  0.85530195  0.65171118  1
  H  H90  1  0.50000000  0.85134400  0.77482141  1
  H  H91  1  0.50000000  0.84811865  0.89902509  1
  H  H92  1  0.50000000  0.14702842  -0.00277943  1
  H  H93  1  0.50000000  0.14484551  0.12388836  1
  H  H94  1  0.50000000  0.14458938  0.25208712  1
  H  H95  1  0.50000000  0.14716171  0.38096476  1
  H  H96  1  0.50000000  0.15042984  0.50533867  1
  H  H97  1  0.50000000  0.15270031  0.62691872  1
  H  H98  1  0.50000000  0.15219929  0.74797615  1
  H  H99  1  0.50000000  0.14977719  0.87183206  1
  H  H100  1  0.50000000  0.80359177  0.47509713  1
  H  H101  1  0.50000000  0.42430013  0.06850098  1
  H  H102  1  0.50000000  0.42382121  0.18800632  1
  H  H103  1  0.50000000  0.42429186  0.31162578  1
  H  H104  1  0.50000000  0.42418856  0.42484972  1
  H  H105  1  0.50000000  0.46062509  0.98761894  1
  H  H106  1  0.50000000  0.46980406  0.45837583  1
  H  H107  1  0.50000000  0.55860917  0.46534611  1
  H  H108  1  0.50000000  0.53224547  0.99329159  1
  H  H109  1  0.50000000  0.62617691  0.99756102  1
  H  H110  1  0.50000000  0.63180631  0.46742524  1
  H  H111  1  0.50000000  0.72593746  0.47196971  1
  H  H112  1  0.50000000  0.70035969  1.00180328  1
  H  H113  1  0.50000000  0.79615511  1.00574286  1
