# generated using pymatgen
data_H13C36
_symmetry_space_group_name_H-M   'P 1'
_cell_length_a   10.00000000
_cell_length_b   25.62946000
_cell_length_c   19.86445858
_cell_angle_alpha   90.00000000
_cell_angle_beta   90.00000000
_cell_angle_gamma   90.00000000
_symmetry_Int_Tables_number   1
_chemical_formula_structural   H13C36
_chemical_formula_sum   'H26 C72'
_cell_volume   5091.15346580
_cell_formula_units_Z   2
loop_
 _symmetry_equiv_pos_site_id
 _symmetry_equiv_pos_as_xyz
  1  'x, y, z'
loop_
 _atom_site_type_symbol
 _atom_site_label
 _atom_site_symmetry_multiplicity
 _atom_site_fract_x
 _atom_site_fract_y
 _atom_site_fract_z
 _atom_site_occupancy
  C  C0  1  0.50000000  0.23235859  0.52795067  1
  C  C1  1  0.50000000  0.23405173  0.65007756  1
  C  C2  1  0.50000000  0.23175485  0.77307967  1
  C  C3  1  0.50000000  0.22847048  0.89711085  1
  C  C4  1  0.50000000  0.26060607  0.58739650  1
  C  C5  1  0.50000000  0.25995488  0.71235811  1
  C  C6  1  0.50000000  0.25702434  0.83579443  1
  C  C7  1  0.50000000  0.25444889  0.95831624  1
  C  C8  1  0.50000000  0.31808164  0.58957555  1
  C  C9  1  0.50000000  0.31653219  0.71435273  1
  C  C10  1  0.50000000  0.31321824  0.83779594  1
  C  C11  1  0.50000000  0.30914115  0.96035587  1
  C  C12  1  0.50000000  0.34780060  0.53039423  1
  C  C13  1  0.50000000  0.34506748  0.65251915  1
  C  C14  1  0.50000000  0.34297684  0.77670127  1
  C  C15  1  0.50000000  0.33904349  0.90084970  1
  C  C16  1  0.50000000  0.40188684  0.53191736  1
  C  C17  1  0.50000000  0.40110523  0.65437921  1
  C  C18  1  0.50000000  0.39939110  0.77844160  1
  C  C19  1  0.50000000  0.39571358  0.90171022  1
  C  C20  1  0.50000000  0.42970434  0.59299172  1
  C  C21  1  0.50000000  0.42825892  0.71781879  1
  C  C22  1  0.50000000  0.42620194  0.84173873  1
  C  C23  1  0.50000000  0.42272553  0.96247881  1
  C  C24  1  0.50000000  0.48647985  0.59508544  1
  C  C25  1  0.50000000  0.48455453  0.72010596  1
  C  C26  1  0.50000000  0.48269847  0.84450371  1
  C  C27  1  0.50000000  0.47633026  0.96488486  1
  C  C28  1  0.50000000  0.51568039  0.53589130  1
  C  C29  1  0.50000000  0.51311739  0.65843927  1
  C  C30  1  0.50000000  0.51179934  0.78303333  1
  C  C31  1  0.50000000  0.50982126  0.90812761  1
  C  C32  1  0.50000000  0.57610515  0.03900889  1
  C  C33  1  0.50000000  0.57605807  0.16170475  1
  C  C34  1  0.50000000  0.57542649  0.28494940  1
  C  C35  1  0.50000000  0.57391007  0.40887193  1
  C  C36  1  0.50000000  0.57026458  0.53474382  1
  C  C37  1  0.50000000  0.56888566  0.65937556  1
  C  C38  1  0.50000000  0.56809693  0.78518745  1
  C  C39  1  0.50000000  0.56723661  0.91127307  1
  C  C40  1  0.50000000  0.60311373  0.10050606  1
  C  C41  1  0.50000000  0.60267150  0.22333820  1
  C  C42  1  0.50000000  0.60126915  0.34671825  1
  C  C43  1  0.50000000  0.59883900  0.47086860  1
  C  C44  1  0.50000000  0.59732339  0.59717504  1
  C  C45  1  0.50000000  0.59578644  0.72278116  1
  C  C46  1  0.50000000  0.59572495  0.84946676  1
  C  C47  1  0.50000000  0.59758811  0.97435746  1
  C  C48  1  0.50000000  0.65906208  0.09951807  1
  C  C49  1  0.50000000  0.65987038  0.22326573  1
  C  C50  1  0.50000000  0.65796108  0.34737071  1
  C  C51  1  0.50000000  0.65551275  0.47179828  1
  C  C52  1  0.50000000  0.65342601  0.59762131  1
  C  C53  1  0.50000000  0.65175667  0.72290291  1
  C  C54  1  0.50000000  0.65315267  0.84923809  1
  C  C55  1  0.50000000  0.65497505  0.97334033  1
  C  C56  1  0.50000000  0.68194981  0.03502414  1
  C  C57  1  0.50000000  0.68653952  0.16088546  1
  C  C58  1  0.50000000  0.68559492  0.28612573  1
  C  C59  1  0.50000000  0.68287210  0.41082032  1
  C  C60  1  0.50000000  0.68219797  0.53598314  1
  C  C61  1  0.50000000  0.67997860  0.66036519  1
  C  C62  1  0.50000000  0.67896049  0.78486231  1
  C  C63  1  0.50000000  0.68307380  0.91036291  1
  C  C64  1  0.50000000  0.73772241  0.53839544  1
  C  C65  1  0.50000000  0.73618515  0.66027981  1
  C  C66  1  0.50000000  0.73509646  0.78264954  1
  C  C67  1  0.50000000  0.74124690  0.90731028  1
  C  C68  1  0.50000000  0.76399567  0.59827271  1
  C  C69  1  0.50000000  0.76245892  0.72119598  1
  C  C70  1  0.50000000  0.76338440  0.84179615  1
  C  C71  1  0.50000000  0.78086965  0.95585258  1
  H  H72  1  0.50000000  0.18960996  0.52938754  1
  H  H73  1  0.50000000  0.19126540  0.64973301  1
  H  H74  1  0.50000000  0.18900097  0.77155964  1
  H  H75  1  0.50000000  0.18571104  0.89526051  1
  H  H76  1  0.50000000  0.80675187  0.59930023  1
  H  H77  1  0.50000000  0.80522743  0.72204860  1
  H  H78  1  0.50000000  0.80600475  0.83772080  1
  H  H79  1  0.50000000  0.82084682  0.93614147  1
  H  H80  1  0.50000000  0.25063805  0.47822260  1
  H  H81  1  0.50000000  0.23243138  0.00562432  1
  H  H82  1  0.50000000  0.32826099  0.00953974  1
  H  H83  1  0.50000000  0.32836158  0.48141756  1
  H  H84  1  0.50000000  0.42257794  0.48376035  1
  H  H85  1  0.50000000  0.40188948  0.01047449  1
  H  H86  1  0.50000000  0.49020952  0.01569839  1
  H  H87  1  0.50000000  0.49495782  0.48806649  1
  H  H88  1  0.50000000  0.53499936  0.04821820  1
  H  H89  1  0.50000000  0.53320550  0.16150634  1
  H  H90  1  0.50000000  0.53263732  0.28399442  1
  H  H91  1  0.50000000  0.53127312  0.40557082  1
  H  H92  1  0.50000000  0.72387701  0.03410720  1
  H  H93  1  0.50000000  0.72935309  0.16048885  1
  H  H94  1  0.50000000  0.72842098  0.28738353  1
  H  H95  1  0.50000000  0.72553678  0.41087127  1
  H  H96  1  0.50000000  0.76023466  0.49174639  1
  H  H97  1  0.50000000  0.77930802  0.01041733  1
