# generated using pymatgen
data_H11C28
_symmetry_space_group_name_H-M   'P 1'
_cell_length_a   10.00000000
_cell_length_b   21.36688000
_cell_length_c   19.76561580
_cell_angle_alpha   90.00000000
_cell_angle_beta   90.00000000
_cell_angle_gamma   90.00000000
_symmetry_Int_Tables_number   1
_chemical_formula_structural   H11C28
_chemical_formula_sum   'H22 C56'
_cell_volume   4223.29540915
_cell_formula_units_Z   2
loop_
 _symmetry_equiv_pos_site_id
 _symmetry_equiv_pos_as_xyz
  1  'x, y, z'
loop_
 _atom_site_type_symbol
 _atom_site_label
 _atom_site_symmetry_multiplicity
 _atom_site_fract_x
 _atom_site_fract_y
 _atom_site_fract_z
 _atom_site_occupancy
  C  C0  1  0.50000000  0.26506535  0.52295779  1
  C  C1  1  0.50000000  0.27459937  0.64528213  1
  C  C2  1  0.50000000  0.28040529  0.76840397  1
  C  C3  1  0.50000000  0.28384269  0.89296234  1
  C  C4  1  0.50000000  0.30234501  0.58020277  1
  C  C5  1  0.50000000  0.31015917  0.70496603  1
  C  C6  1  0.50000000  0.31450489  0.82920446  1
  C  C7  1  0.50000000  0.31849150  0.95219599  1
  C  C8  1  0.50000000  0.37111250  0.57745944  1
  C  C9  1  0.50000000  0.37802895  0.70182050  1
  C  C10  1  0.50000000  0.38186815  0.82652369  1
  C  C11  1  0.50000000  0.38410738  0.94972288  1
  C  C12  1  0.50000000  0.40247466  0.51579166  1
  C  C13  1  0.50000000  0.40843789  0.63721026  1
  C  C14  1  0.50000000  0.41306194  0.76213460  1
  C  C15  1  0.50000000  0.41660667  0.88783858  1
  C  C16  1  0.50000000  0.46708004  0.51187009  1
  C  C17  1  0.50000000  0.47600282  0.63313358  1
  C  C18  1  0.50000000  0.48034649  0.75859447  1
  C  C19  1  0.50000000  0.48493193  0.88418809  1
  C  C20  1  0.50000000  0.50743013  0.56845114  1
  C  C21  1  0.50000000  0.51130023  0.69466595  1
  C  C22  1  0.50000000  0.51558874  0.81970871  1
  C  C23  1  0.50000000  0.52132772  0.94239815  1
  C  C24  1  0.50000000  0.59472046  0.06683779  1
  C  C25  1  0.50000000  0.59740099  0.18969056  1
  C  C26  1  0.50000000  0.59577707  0.31247757  1
  C  C27  1  0.50000000  0.58962831  0.43484404  1
  C  C28  1  0.50000000  0.57634900  0.56427985  1
  C  C29  1  0.50000000  0.57847595  0.69145222  1
  C  C30  1  0.50000000  0.58242413  0.81698236  1
  C  C31  1  0.50000000  0.58712864  0.94141807  1
  C  C32  1  0.50000000  0.62316454  0.00409415  1
  C  C33  1  0.50000000  0.62886889  0.12808933  1
  C  C34  1  0.50000000  0.62933941  0.25164130  1
  C  C35  1  0.50000000  0.62587743  0.37510948  1
  C  C36  1  0.50000000  0.61304180  0.50065387  1
  C  C37  1  0.50000000  0.60980588  0.62646386  1
  C  C38  1  0.50000000  0.61321807  0.75276408  1
  C  C39  1  0.50000000  0.61807056  0.87824515  1
  C  C40  1  0.50000000  0.69139641  0.00142602  1
  C  C41  1  0.50000000  0.69706981  0.12692225  1
  C  C42  1  0.50000000  0.69778697  0.25257800  1
  C  C43  1  0.50000000  0.69357736  0.37788515  1
  C  C44  1  0.50000000  0.68192910  0.50311476  1
  C  C45  1  0.50000000  0.67814466  0.62704917  1
  C  C46  1  0.50000000  0.68100889  0.75153796  1
  C  C47  1  0.50000000  0.68593633  0.87616225  1
  C  C48  1  0.50000000  0.72607252  0.06260980  1
  C  C49  1  0.50000000  0.72947036  0.18950909  1
  C  C50  1  0.50000000  0.72790297  0.31648175  1
  C  C51  1  0.50000000  0.71903229  0.44353082  1
  C  C52  1  0.50000000  0.71178221  0.56610061  1
  C  C53  1  0.50000000  0.71112402  0.68852478  1
  C  C54  1  0.50000000  0.71525093  0.81252125  1
  C  C55  1  0.50000000  0.72031397  0.93723795  1
  H  H56  1  0.50000000  0.21400428  0.52791014  1
  H  H57  1  0.50000000  0.22339476  0.64922022  1
  H  H58  1  0.50000000  0.22909367  0.77033761  1
  H  H59  1  0.50000000  0.23252603  0.89430970  1
  H  H60  1  0.50000000  0.77738705  0.05956163  1
  H  H61  1  0.50000000  0.78086041  0.18917197  1
  H  H62  1  0.50000000  0.77925610  0.31829403  1
  H  H63  1  0.50000000  0.77006140  0.44986329  1
  H  H64  1  0.50000000  0.76309797  0.56819494  1
  H  H65  1  0.50000000  0.76246452  0.68698380  1
  H  H66  1  0.50000000  0.76656345  0.80999938  1
  H  H67  1  0.50000000  0.77159502  0.93436708  1
  H  H68  1  0.50000000  0.28412096  0.47165943  1
  H  H69  1  0.50000000  0.29487852  1.00142028  1
  H  H70  1  0.50000000  0.40981379  0.99754515  1
  H  H71  1  0.50000000  0.37641031  0.46818782  1
  H  H72  1  0.50000000  0.48452926  0.46086460  1
  H  H73  1  0.50000000  0.49762422  0.99116479  1
  H  H74  1  0.50000000  0.54368742  0.07151413  1
  H  H75  1  0.50000000  0.54604851  0.18989874  1
  H  H76  1  0.50000000  0.54446381  0.31041233  1
  H  H77  1  0.50000000  0.54033005  0.42329029  1
