# generated using pymatgen
data_H13C44
_symmetry_space_group_name_H-M   'P 1'
_cell_length_a   10.00000000
_cell_length_b   25.62946000
_cell_length_c   19.88024470
_cell_angle_alpha   90.00000000
_cell_angle_beta   90.00000000
_cell_angle_gamma   90.00000000
_symmetry_Int_Tables_number   1
_chemical_formula_structural   H13C44
_chemical_formula_sum   'H26 C88'
_cell_volume   5095.19936265
_cell_formula_units_Z   2
loop_
 _symmetry_equiv_pos_site_id
 _symmetry_equiv_pos_as_xyz
  1  'x, y, z'
loop_
 _atom_site_type_symbol
 _atom_site_label
 _atom_site_symmetry_multiplicity
 _atom_site_fract_x
 _atom_site_fract_y
 _atom_site_fract_z
 _atom_site_occupancy
  C  C0  1  0.50000000  0.82115125  0.52801844  1
  C  C1  1  0.50000000  0.81215385  0.64908423  1
  C  C2  1  0.50000000  0.80708990  0.77086468  1
  C  C3  1  0.50000000  0.80427634  0.89436029  1
  C  C4  1  0.50000000  0.19236065  0.50191406  1
  C  C5  1  0.50000000  0.19435449  0.62329594  1
  C  C6  1  0.50000000  0.19241747  0.74474833  1
  C  C7  1  0.50000000  0.18504325  0.86522510  1
  C  C8  1  0.50000000  0.22082613  0.56106340  1
  C  C9  1  0.50000000  0.22073240  0.68499483  1
  C  C10  1  0.50000000  0.21709940  0.80749352  1
  C  C11  1  0.50000000  0.20869173  0.92721511  1
  C  C12  1  0.50000000  0.27830173  0.56449638  1
  C  C13  1  0.50000000  0.27715557  0.68848827  1
  C  C14  1  0.50000000  0.27357326  0.81224367  1
  C  C15  1  0.50000000  0.26307466  0.93204588  1
  C  C16  1  0.50000000  0.30734188  0.50622986  1
  C  C17  1  0.50000000  0.30556633  0.62750012  1
  C  C18  1  0.50000000  0.30338886  0.75140942  1
  C  C19  1  0.50000000  0.29846639  0.87689212  1
  C  C20  1  0.50000000  0.36241806  0.00765115  1
  C  C21  1  0.50000000  0.36094725  0.13091587  1
  C  C22  1  0.50000000  0.36031576  0.25567520  1
  C  C23  1  0.50000000  0.36231597  0.38055970  1
  C  C24  1  0.50000000  0.36196098  0.50561924  1
  C  C25  1  0.50000000  0.36142769  0.62909475  1
  C  C26  1  0.50000000  0.35947333  0.75393275  1
  C  C27  1  0.50000000  0.35614322  0.88027378  1
  C  C28  1  0.50000000  0.38856883  0.06972329  1
  C  C29  1  0.50000000  0.38690424  0.19344212  1
  C  C30  1  0.50000000  0.38745673  0.31723289  1
  C  C31  1  0.50000000  0.38909310  0.44181612  1
  C  C32  1  0.50000000  0.39005271  0.56740155  1
  C  C33  1  0.50000000  0.38853521  0.69235271  1
  C  C34  1  0.50000000  0.38540746  0.81853209  1
  C  C35  1  0.50000000  0.38539953  0.94370777  1
  C  C36  1  0.50000000  0.44418355  0.06910906  1
  C  C37  1  0.50000000  0.44340133  0.19327875  1
  C  C38  1  0.50000000  0.44351251  0.31709435  1
  C  C39  1  0.50000000  0.44513618  0.44266623  1
  C  C40  1  0.50000000  0.44624213  0.56768289  1
  C  C41  1  0.50000000  0.44498345  0.69243276  1
  C  C42  1  0.50000000  0.44222821  0.81810887  1
  C  C43  1  0.50000000  0.44203548  0.94311513  1
  C  C44  1  0.50000000  0.47009052  0.00580921  1
  C  C45  1  0.50000000  0.47110239  0.13131021  1
  C  C46  1  0.50000000  0.47106864  0.25500718  1
  C  C47  1  0.50000000  0.47068428  0.37918510  1
  C  C48  1  0.50000000  0.47371742  0.50516751  1
  C  C49  1  0.50000000  0.47399647  0.63024124  1
  C  C50  1  0.50000000  0.47135798  0.75584423  1
  C  C51  1  0.50000000  0.46970511  0.88063849  1
  C  C52  1  0.50000000  0.52606556  0.00685902  1
  C  C53  1  0.50000000  0.52715973  0.13127330  1
  C  C54  1  0.50000000  0.52754054  0.25476701  1
  C  C55  1  0.50000000  0.52627621  0.37838085  1
  C  C56  1  0.50000000  0.53054134  0.50443379  1
  C  C57  1  0.50000000  0.53090209  0.63007671  1
  C  C58  1  0.50000000  0.52780576  0.75600668  1
  C  C59  1  0.50000000  0.52578742  0.88094101  1
  C  C60  1  0.50000000  0.55255444  0.06815917  1
  C  C61  1  0.50000000  0.55421344  0.19272140  1
  C  C62  1  0.50000000  0.55364215  0.31710730  1
  C  C63  1  0.50000000  0.55298563  0.44018792  1
  C  C64  1  0.50000000  0.56001491  0.56827459  1
  C  C65  1  0.50000000  0.55726093  0.69457780  1
  C  C66  1  0.50000000  0.55468272  0.81935256  1
  C  C67  1  0.50000000  0.55336685  0.94305763  1
  C  C68  1  0.50000000  0.61753152  0.57225339  1
  C  C69  1  0.50000000  0.61358377  0.69732081  1
  C  C70  1  0.50000000  0.61053661  0.82118743  1
  C  C71  1  0.50000000  0.60767239  0.94269906  1
  C  C72  1  0.50000000  0.65212897  0.51647569  1
  C  C73  1  0.50000000  0.64360126  0.63645777  1
  C  C74  1  0.50000000  0.63985913  0.76056103  1
  C  C75  1  0.50000000  0.63705356  0.88449763  1
  C  C76  1  0.50000000  0.70588893  0.52038606  1
  C  C77  1  0.50000000  0.70017822  0.64061097  1
  C  C78  1  0.50000000  0.69606932  0.76429396  1
  C  C79  1  0.50000000  0.69373300  0.88873669  1
  C  C80  1  0.50000000  0.73192505  0.58166130  1
  C  C81  1  0.50000000  0.72554598  0.70465834  1
  C  C82  1  0.50000000  0.72250496  0.82802726  1
  C  C83  1  0.50000000  0.72071682  0.95045708  1
  C  C84  1  0.50000000  0.78930339  0.58434018  1
  C  C85  1  0.50000000  0.78214925  0.70796964  1
  C  C86  1  0.50000000  0.77865807  0.83107486  1
  C  C87  1  0.50000000  0.77535893  0.95322931  1
  H  H88  1  0.50000000  0.86364417  0.53450677  1
  H  H89  1  0.50000000  0.85482239  0.65337533  1
  H  H90  1  0.50000000  0.84985367  0.77281708  1
  H  H91  1  0.50000000  0.84705460  0.89558188  1
  H  H92  1  0.50000000  0.14965505  0.50433083  1
  H  H93  1  0.50000000  0.15156590  0.62372493  1
  H  H94  1  0.50000000  0.14968318  0.74270857  1
  H  H95  1  0.50000000  0.14257754  0.85917032  1
  H  H96  1  0.50000000  0.80652437  0.47637101  1
  H  H97  1  0.50000000  0.20983788  0.45179392  1
  H  H98  1  0.50000000  0.18587809  0.97385571  1
  H  H99  1  0.50000000  0.27509799  0.98368674  1
  H  H100  1  0.50000000  0.28649791  0.45857576  1
  H  H101  1  0.50000000  0.32106933  0.01451987  1
  H  H102  1  0.50000000  0.31813126  0.12995173  1
  H  H103  1  0.50000000  0.31749642  0.25579125  1
  H  H104  1  0.50000000  0.31969182  0.37969624  1
  H  H105  1  0.50000000  0.59517027  0.06942312  1
  H  H106  1  0.50000000  0.59702879  0.19280048  1
  H  H107  1  0.50000000  0.59643961  0.31774266  1
  H  H108  1  0.50000000  0.59426646  0.43207881  1
  H  H109  1  0.50000000  0.62800837  0.99057084  1
  H  H110  1  0.50000000  0.63918879  0.46526031  1
  H  H111  1  0.50000000  0.72776779  0.47311744  1
  H  H112  1  0.50000000  0.69938862  0.99806023  1
  H  H113  1  0.50000000  0.79487796  1.00226742  1
