# generated using pymatgen
data_H9C76
_symmetry_space_group_name_H-M   'P 1'
_cell_length_a   10.00000000
_cell_length_b   29.89204000
_cell_length_c   19.76032115
_cell_angle_alpha   90.00000000
_cell_angle_beta   90.00000000
_cell_angle_gamma   90.00000000
_symmetry_Int_Tables_number   1
_chemical_formula_structural   H9C76
_chemical_formula_sum   'H18 C152'
_cell_volume   5906.76310114
_cell_formula_units_Z   2
loop_
 _symmetry_equiv_pos_site_id
 _symmetry_equiv_pos_as_xyz
  1  'x, y, z'
loop_
 _atom_site_type_symbol
 _atom_site_label
 _atom_site_symmetry_multiplicity
 _atom_site_fract_x
 _atom_site_fract_y
 _atom_site_fract_z
 _atom_site_occupancy
  C  C0  1  0.50000000  0.84752487  0.51992705  1
  C  C1  1  0.50000000  0.83425511  0.63596127  1
  C  C2  1  0.50000000  0.83348126  0.75855820  1
  C  C3  1  0.50000000  0.83371602  0.88283970  1
  C  C4  1  0.50000000  0.16598159  0.00713153  1
  C  C5  1  0.50000000  0.16593849  0.13218300  1
  C  C6  1  0.50000000  0.16590722  0.25724873  1
  C  C7  1  0.50000000  0.16591756  0.38232015  1
  C  C8  1  0.50000000  0.16596293  0.50732239  1
  C  C9  1  0.50000000  0.16601357  0.63229346  1
  C  C10  1  0.50000000  0.16604480  0.75721714  1
  C  C11  1  0.50000000  0.16602565  0.88216489  1
  C  C12  1  0.50000000  0.18876306  0.06966332  1
  C  C13  1  0.50000000  0.18871930  0.19472725  1
  C  C14  1  0.50000000  0.18869549  0.31978515  1
  C  C15  1  0.50000000  0.18873868  0.44480355  1
  C  C16  1  0.50000000  0.18879441  0.56978207  1
  C  C17  1  0.50000000  0.18885986  0.69473518  1
  C  C18  1  0.50000000  0.18886368  0.81968423  1
  C  C19  1  0.50000000  0.18883936  0.94465093  1
  C  C20  1  0.50000000  0.23716297  0.06964928  1
  C  C21  1  0.50000000  0.23710808  0.19471169  1
  C  C22  1  0.50000000  0.23708281  0.31976854  1
  C  C23  1  0.50000000  0.23711950  0.44476820  1
  C  C24  1  0.50000000  0.23718319  0.56972759  1
  C  C25  1  0.50000000  0.23725245  0.69468710  1
  C  C26  1  0.50000000  0.23726639  0.81964989  1
  C  C27  1  0.50000000  0.23724364  0.94463320  1
  C  C28  1  0.50000000  0.26091902  0.00714501  1
  C  C29  1  0.50000000  0.26082589  0.13217576  1
  C  C30  1  0.50000000  0.26077929  0.25723831  1
  C  C31  1  0.50000000  0.26079720  0.38225770  1
  C  C32  1  0.50000000  0.26086081  0.50722240  1
  C  C33  1  0.50000000  0.26092868  0.63217383  1
  C  C34  1  0.50000000  0.26098028  0.75714741  1
  C  C35  1  0.50000000  0.26097641  0.88212192  1
  C  C36  1  0.50000000  0.30884252  0.00705633  1
  C  C37  1  0.50000000  0.30874517  0.13209630  1
  C  C38  1  0.50000000  0.30869888  0.25716566  1
  C  C39  1  0.50000000  0.30872885  0.38220969  1
  C  C40  1  0.50000000  0.30879717  0.50718499  1
  C  C41  1  0.50000000  0.30886315  0.63213254  1
  C  C42  1  0.50000000  0.30891783  0.75707791  1
  C  C43  1  0.50000000  0.30890788  0.88202766  1
  C  C44  1  0.50000000  0.33256031  0.06956540  1
  C  C45  1  0.50000000  0.33247882  0.19461849  1
  C  C46  1  0.50000000  0.33247745  0.31966123  1
  C  C47  1  0.50000000  0.33255472  0.44467284  1
  C  C48  1  0.50000000  0.33263253  0.56963824  1
  C  C49  1  0.50000000  0.33269651  0.69457281  1
  C  C50  1  0.50000000  0.33272121  0.81952672  1
  C  C51  1  0.50000000  0.33264733  0.94451886  1
  C  C52  1  0.50000000  0.38035464  0.06945206  1
  C  C53  1  0.50000000  0.38028856  0.19451644  1
  C  C54  1  0.50000000  0.38030163  0.31956773  1
  C  C55  1  0.50000000  0.38039533  0.44461036  1
  C  C56  1  0.50000000  0.38048624  0.56959273  1
  C  C57  1  0.50000000  0.38054516  0.69450907  1
  C  C58  1  0.50000000  0.38054717  0.81943183  1
  C  C59  1  0.50000000  0.38045491  0.94440508  1
  C  C60  1  0.50000000  0.40417689  0.00691739  1
  C  C61  1  0.50000000  0.40408434  0.13195522  1
  C  C62  1  0.50000000  0.40408028  0.25700952  1
  C  C63  1  0.50000000  0.40414361  0.38205134  1
  C  C64  1  0.50000000  0.40427022  0.50708269  1
  C  C65  1  0.50000000  0.40436982  0.63203018  1
  C  C66  1  0.50000000  0.40439657  0.75693899  1
  C  C67  1  0.50000000  0.40431623  0.88190269  1
  C  C68  1  0.50000000  0.45194125  0.00681727  1
  C  C69  1  0.50000000  0.45182595  0.13184653  1
  C  C70  1  0.50000000  0.45184287  0.25693456  1
  C  C71  1  0.50000000  0.45192395  0.38199483  1
  C  C72  1  0.50000000  0.45207990  0.50702035  1
  C  C73  1  0.50000000  0.45220613  0.63194927  1
  C  C74  1  0.50000000  0.45222179  0.75683668  1
  C  C75  1  0.50000000  0.45211239  0.88180049  1
  C  C76  1  0.50000000  0.47565905  0.06932508  1
  C  C77  1  0.50000000  0.47556514  0.19434252  1
  C  C78  1  0.50000000  0.47565433  0.31944902  1
  C  C79  1  0.50000000  0.47581215  0.44447286  1
  C  C80  1  0.50000000  0.47601150  0.56944530  1
  C  C81  1  0.50000000  0.47610717  0.69437141  1
  C  C82  1  0.50000000  0.47603615  0.81931004  1
  C  C83  1  0.50000000  0.47583107  0.94430867  1
  C  C84  1  0.50000000  0.52341272  0.06924893  1
  C  C85  1  0.50000000  0.52327519  0.19427838  1
  C  C86  1  0.50000000  0.52338367  0.31942788  1
  C  C87  1  0.50000000  0.52359332  0.44445736  1
  C  C88  1  0.50000000  0.52383587  0.56938592  1
  C  C89  1  0.50000000  0.52396256  0.69425197  1
  C  C90  1  0.50000000  0.52387755  0.81919763  1
  C  C91  1  0.50000000  0.52361420  0.94422546  1
  C  C92  1  0.50000000  0.54731662  0.00677240  1
  C  C93  1  0.50000000  0.54709554  0.13175878  1
  C  C94  1  0.50000000  0.54695126  0.25678503  1
  C  C95  1  0.50000000  0.54724882  0.38192058  1
  C  C96  1  0.50000000  0.54756392  0.50687485  1
  C  C97  1  0.50000000  0.54783090  0.63175873  1
  C  C98  1  0.50000000  0.54784197  0.75669260  1
  C  C99  1  0.50000000  0.54758805  0.88176618  1
  C  C100  1  0.50000000  0.59511393  0.00676074  1
  C  C101  1  0.50000000  0.59484083  0.13169458  1
  C  C102  1  0.50000000  0.59462128  0.25670584  1
  C  C103  1  0.50000000  0.59501216  0.38188772  1
  C  C104  1  0.50000000  0.59541215  0.50685149  1
  C  C105  1  0.50000000  0.59573058  0.63160961  1
  C  C106  1  0.50000000  0.59572645  0.75657342  1
  C  C107  1  0.50000000  0.59542256  0.88178041  1
  C  C108  1  0.50000000  0.61873627  0.06925295  1
  C  C109  1  0.50000000  0.61837747  0.19427272  1
  C  C110  1  0.50000000  0.61835902  0.31910550  1
  C  C111  1  0.50000000  0.61901906  0.44432991  1
  C  C112  1  0.50000000  0.61956770  0.56910912  1
  C  C113  1  0.50000000  0.61970915  0.69397012  1
  C  C114  1  0.50000000  0.61935767  0.81930557  1
  C  C115  1  0.50000000  0.61916233  0.94435324  1
  C  C116  1  0.50000000  0.66661525  0.06934866  1
  C  C117  1  0.50000000  0.66613472  0.19427997  1
  C  C118  1  0.50000000  0.66603833  0.31883445  1
  C  C119  1  0.50000000  0.66690676  0.44412504  1
  C  C120  1  0.50000000  0.66762423  0.56886012  1
  C  C121  1  0.50000000  0.66771119  0.69370353  1
  C  C122  1  0.50000000  0.66718431  0.81942218  1
  C  C123  1  0.50000000  0.66702694  0.94450818  1
  C  C124  1  0.50000000  0.69074280  0.00699476  1
  C  C125  1  0.50000000  0.68987537  0.13193087  1
  C  C126  1  0.50000000  0.68978326  0.25650372  1
  C  C127  1  0.50000000  0.68968753  0.38111308  1
  C  C128  1  0.50000000  0.69133403  0.50653595  1
  C  C129  1  0.50000000  0.69188866  0.63109310  1
  C  C130  1  0.50000000  0.69092016  0.75676338  1
  C  C131  1  0.50000000  0.69087669  0.88198334  1
  C  C132  1  0.50000000  0.73891375  0.00786191  1
  C  C133  1  0.50000000  0.73797258  0.13229981  1
  C  C134  1  0.50000000  0.73804474  0.25640845  1
  C  C135  1  0.50000000  0.73757276  0.38050250  1
  C  C136  1  0.50000000  0.73975817  0.50575787  1
  C  C137  1  0.50000000  0.74026492  0.63037150  1
  C  C138  1  0.50000000  0.73870922  0.75670064  1
  C  C139  1  0.50000000  0.73887807  0.88221962  1
  C  C140  1  0.50000000  0.76101197  0.07007667  1
  C  C141  1  0.50000000  0.76097921  0.19425136  1
  C  C142  1  0.50000000  0.76075545  0.31868554  1
  C  C143  1  0.50000000  0.76064901  0.44242934  1
  C  C144  1  0.50000000  0.76495678  0.56812399  1
  C  C145  1  0.50000000  0.76246943  0.69465792  1
  C  C146  1  0.50000000  0.76245996  0.81962177  1
  C  C147  1  0.50000000  0.76301843  0.94444889  1
  C  C148  1  0.50000000  0.81460196  0.57042618  1
  C  C149  1  0.50000000  0.81047818  0.69637412  1
  C  C150  1  0.50000000  0.81053730  0.81991777  1
  C  C151  1  0.50000000  0.81062420  0.94274851  1
  H  H152  1  0.50000000  0.88228640  0.53765524  1
  H  H153  1  0.50000000  0.87087181  0.63869046  1
  H  H154  1  0.50000000  0.87016405  0.75808169  1
  H  H155  1  0.50000000  0.87039769  0.88235870  1
  H  H156  1  0.50000000  0.12927323  0.00705144  1
  H  H157  1  0.50000000  0.12923893  0.13215274  1
  H  H158  1  0.50000000  0.12921702  0.25717764  1
  H  H159  1  0.50000000  0.12923659  0.38239497  1
  H  H160  1  0.50000000  0.12928205  0.50739247  1
  H  H161  1  0.50000000  0.12932503  0.63243972  1
  H  H162  1  0.50000000  0.12934957  0.75726183  1
  H  H163  1  0.50000000  0.12931804  0.88218487  1
  H  H164  1  0.50000000  0.84451036  0.46520306  1
  H  H165  1  0.50000000  0.79754990  0.07231590  1
  H  H166  1  0.50000000  0.79766345  0.19411112  1
  H  H167  1  0.50000000  0.79743626  0.31874177  1
  H  H168  1  0.50000000  0.79659091  0.43911864  1
  H  H169  1  0.50000000  0.82959230  0.98998015  1
