# generated using pymatgen
data_H13C60
_symmetry_space_group_name_H-M   'P 1'
_cell_length_a   10.00000000
_cell_length_b   29.89204000
_cell_length_c   19.77520294
_cell_angle_alpha   90.00000000
_cell_angle_beta   90.00000000
_cell_angle_gamma   90.00000000
_symmetry_Int_Tables_number   1
_chemical_formula_structural   H13C60
_chemical_formula_sum   'H26 C120'
_cell_volume   5911.21157360
_cell_formula_units_Z   2
loop_
 _symmetry_equiv_pos_site_id
 _symmetry_equiv_pos_as_xyz
  1  'x, y, z'
loop_
 _atom_site_type_symbol
 _atom_site_label
 _atom_site_symmetry_multiplicity
 _atom_site_fract_x
 _atom_site_fract_y
 _atom_site_fract_z
 _atom_site_occupancy
  C  C0  1  0.50000061  0.84650030  0.52824105  1
  C  C1  1  0.50000040  0.83938724  0.65004173  1
  C  C2  1  0.50000018  0.83607639  0.77381258  1
  C  C3  1  0.49999994  0.83356108  0.89833280  1
  C  C4  1  0.50000004  0.16431602  0.00126323  1
  C  C5  1  0.50000001  0.16361609  0.12682168  1
  C  C6  1  0.49999992  0.16361737  0.25262522  1
  C  C7  1  0.49999985  0.16423502  0.37824149  1
  C  C8  1  0.49999988  0.16507064  0.50323463  1
  C  C9  1  0.49999997  0.16572246  0.62769708  1
  C  C10  1  0.49999997  0.16579682  0.75192113  1
  C  C11  1  0.49999996  0.16522086  0.87629477  1
  C  C12  1  0.49999999  0.18661055  0.06421811  1
  C  C13  1  0.49999990  0.18615127  0.18970523  1
  C  C14  1  0.49999989  0.18656306  0.31530158  1
  C  C15  1  0.49999984  0.18744251  0.44052796  1
  C  C16  1  0.49999994  0.18836442  0.56529963  1
  C  C17  1  0.49999993  0.18876711  0.68977581  1
  C  C18  1  0.49999996  0.18849622  0.81426948  1
  C  C19  1  0.50000000  0.18758497  0.93903823  1
  C  C20  1  0.49999994  0.23497965  0.06438016  1
  C  C21  1  0.49999989  0.23452434  0.18967667  1
  C  C22  1  0.50000008  0.23492924  0.31518631  1
  C  C23  1  0.50000012  0.23584547  0.44040590  1
  C  C24  1  0.50000010  0.23675427  0.56517006  1
  C  C25  1  0.49999990  0.23720171  0.68973894  1
  C  C26  1  0.49999997  0.23688020  0.81437391  1
  C  C27  1  0.49999999  0.23592887  0.93926205  1
  C  C28  1  0.49999996  0.25901766  0.00206034  1
  C  C29  1  0.49999994  0.25825557  0.12714541  1
  C  C30  1  0.50000013  0.25810523  0.25230334  1
  C  C31  1  0.50000046  0.25893140  0.37761329  1
  C  C32  1  0.50000049  0.26005048  0.50262179  1
  C  C33  1  0.50000005  0.26083254  0.62734044  1
  C  C34  1  0.49999998  0.26090653  0.75208995  1
  C  C35  1  0.49999998  0.26010982  0.87701042  1
  C  C36  1  0.49999992  0.30697729  0.00216991  1
  C  C37  1  0.50000010  0.30616288  0.12719589  1
  C  C38  1  0.50000103  0.30592209  0.25219468  1
  C  C39  1  0.50000173  0.30686973  0.37762111  1
  C  C40  1  0.50000166  0.30810668  0.50269825  1
  C  C41  1  0.50000065  0.30899806  0.62731830  1
  C  C42  1  0.50000002  0.30900250  0.75194161  1
  C  C43  1  0.49999995  0.30812427  0.87698972  1
  C  C44  1  0.49999996  0.33016039  0.06487149  1
  C  C45  1  0.50000077  0.32959119  0.18979527  1
  C  C46  1  0.50000261  0.32969571  0.31454126  1
  C  C47  1  0.50000238  0.33118070  0.44003953  1
  C  C48  1  0.50000220  0.33268808  0.56481811  1
  C  C49  1  0.50000027  0.33307978  0.68949958  1
  C  C50  1  0.49999993  0.33235954  0.81466471  1
  C  C51  1  0.49999993  0.33130131  0.93988958  1
  C  C52  1  0.50000003  0.37801191  0.06520553  1
  C  C53  1  0.50000108  0.37740208  0.18993886  1
  C  C54  1  0.50000394  0.37733480  0.31419637  1
  C  C55  1  0.50000351  0.37911638  0.43992895  1
  C  C56  1  0.50000336  0.38092642  0.56464193  1
  C  C57  1  0.49999996  0.38130520  0.68925096  1
  C  C58  1  0.49999988  0.38034118  0.81471606  1
  C  C59  1  0.49999989  0.37912743  0.94020991  1
  C  C60  1  0.49999990  0.40221517  0.00300961  1
  C  C61  1  0.50000050  0.40113813  0.12776205  1
  C  C62  1  0.50000190  0.40110145  0.25202583  1
  C  C63  1  0.50000382  0.40091457  0.37635988  1
  C  C64  1  0.50000416  0.40418981  0.50211394  1
  C  C65  1  0.50000037  0.40559823  0.62696463  1
  C  C66  1  0.49999987  0.40473366  0.75227732  1
  C  C67  1  0.49999986  0.40338503  0.87753145  1
  C  C68  1  0.49999989  0.45019969  0.00428468  1
  C  C69  1  0.50000080  0.44919122  0.12829287  1
  C  C70  1  0.50000004  0.44939995  0.25183658  1
  C  C71  1  0.49999128  0.44843527  0.37530955  1
  C  C72  1  0.49999383  0.45284303  0.50106241  1
  C  C73  1  0.50000001  0.45424544  0.62660376  1
  C  C74  1  0.49999988  0.45263698  0.75251928  1
  C  C75  1  0.49999972  0.45114654  0.87786976  1
  C  C76  1  0.50000023  0.47218184  0.06604364  1
  C  C77  1  0.50000085  0.47234921  0.18977093  1
  C  C78  1  0.49999253  0.47196096  0.31401064  1
  C  C79  1  0.49997018  0.47174435  0.43670298  1
  C  C80  1  0.50000032  0.47884416  0.56434532  1
  C  C81  1  0.49999972  0.47741197  0.69067400  1
  C  C82  1  0.49999957  0.47580560  0.81598715  1
  C  C83  1  0.49999975  0.47446503  0.94062508  1
  C  C84  1  0.50000804  0.52789325  0.56766829  1
  C  C85  1  0.49999697  0.52555566  0.69315125  1
  C  C86  1  0.49999918  0.52355507  0.81763810  1
  C  C87  1  0.49999991  0.52095751  0.94028218  1
  C  C88  1  0.50003152  0.55723788  0.51101197  1
  C  C89  1  0.49999729  0.55089470  0.63183209  1
  C  C90  1  0.49999758  0.54865287  0.75648898  1
  C  C91  1  0.49999977  0.54617333  0.88122374  1
  C  C92  1  0.50001161  0.60310810  0.51427717  1
  C  C93  1  0.49999534  0.59936502  0.63547013  1
  C  C94  1  0.49999805  0.59675032  0.75967116  1
  C  C95  1  0.49999973  0.59452414  0.88451204  1
  C  C96  1  0.49999354  0.62594860  0.57581626  1
  C  C97  1  0.49999680  0.62214241  0.69927142  1
  C  C98  1  0.49999939  0.61958439  0.82359757  1
  C  C99  1  0.49999973  0.61763503  0.94664069  1
  C  C100  1  0.49999399  0.67430424  0.57767805  1
  C  C101  1  0.49999783  0.67046355  0.70205582  1
  C  C102  1  0.49999969  0.66754989  0.82661019  1
  C  C103  1  0.49999963  0.66377602  0.94943209  1
  C  C104  1  0.49999609  0.70042184  0.51825794  1
  C  C105  1  0.49999706  0.69649096  0.64112719  1
  C  C106  1  0.49999939  0.69288305  0.76531357  1
  C  C107  1  0.49999982  0.68993351  0.89036710  1
  C  C108  1  0.49999893  0.74678157  0.52063266  1
  C  C109  1  0.49999923  0.74448632  0.64347082  1
  C  C110  1  0.50000000  0.74099446  0.76813299  1
  C  C111  1  0.49999985  0.73859629  0.89352430  1
  C  C112  1  0.49999968  0.77001013  0.58229170  1
  C  C113  1  0.50000009  0.76629586  0.70774165  1
  C  C114  1  0.50000022  0.76344311  0.83217057  1
  C  C115  1  0.49999939  0.76196118  0.95535871  1
  C  C116  1  0.50000039  0.81928253  0.58494967  1
  C  C117  1  0.50000034  0.81471764  0.71042949  1
  C  C118  1  0.50000021  0.81164543  0.83460184  1
  C  C119  1  0.49999948  0.80881891  0.95763884  1
  H  H120  1  0.50000034  0.88292781  0.53481964  1
  H  H121  1  0.50000035  0.87603792  0.65312963  1
  H  H122  1  0.49999999  0.87276139  0.77585745  1
  H  H123  1  0.50000001  0.87022975  0.89981925  1
  H  H124  1  0.50000007  0.12762778  0.00030621  1
  H  H125  1  0.50000011  0.12691806  0.12633560  1
  H  H126  1  0.49999999  0.12690221  0.25289751  1
  H  H127  1  0.49999988  0.12752602  0.37888647  1
  H  H128  1  0.49999991  0.12839748  0.50407974  1
  H  H129  1  0.50000005  0.12903671  0.62814405  1
  H  H130  1  0.50000001  0.12911039  0.75171390  1
  H  H131  1  0.49999991  0.12852769  0.87540683  1
  H  H132  1  0.50000081  0.83380430  0.47640173  1
  H  H133  1  0.50000009  0.50867846  0.06885081  1
  H  H134  1  0.49999989  0.50905656  0.18941719  1
  H  H135  1  0.49999060  0.50864048  0.31447506  1
  H  H136  1  0.49991691  0.50700566  0.42812450  1
  H  H137  1  0.49999998  0.53842321  0.98846417  1
  H  H138  1  0.50008625  0.54591572  0.45966347  1
  H  H139  1  0.50002118  0.62139863  0.46644377  1
  H  H140  1  0.49999971  0.59943429  0.99454032  1
  H  H141  1  0.49999935  0.67986386  0.99901179  1
  H  H142  1  0.49999562  0.68444391  0.46857896  1
  H  H143  1  0.50000015  0.76532275  0.47292492  1
  H  H144  1  0.49999904  0.74364378  1.00316766  1
  H  H145  1  0.49999913  0.82579371  1.00675713  1
