# generated using pymatgen
data_H3C8
_symmetry_space_group_name_H-M   'P 1'
_cell_length_a   10.00000000
_cell_length_b   21.36688000
_cell_length_c   19.76741837
_cell_angle_alpha   90.00000000
_cell_angle_beta   90.00000000
_cell_angle_gamma   90.00000000
_symmetry_Int_Tables_number   1
_chemical_formula_structural   H3C8
_chemical_formula_sum   'H24 C64'
_cell_volume   4223.68056213
_cell_formula_units_Z   8
loop_
 _symmetry_equiv_pos_site_id
 _symmetry_equiv_pos_as_xyz
  1  'x, y, z'
loop_
 _atom_site_type_symbol
 _atom_site_label
 _atom_site_symmetry_multiplicity
 _atom_site_fract_x
 _atom_site_fract_y
 _atom_site_fract_z
 _atom_site_occupancy
  C  C0  1  0.50000027  0.76756408  0.51972425  1
  C  C1  1  0.50000079  0.76762934  0.64233043  1
  C  C2  1  0.50000181  0.77252385  0.76581788  1
  C  C3  1  0.50000162  0.77887305  0.89014704  1
  C  C4  1  0.49999838  0.23072802  0.03462946  1
  C  C5  1  0.49999932  0.22191590  0.16168399  1
  C  C6  1  0.49999909  0.22001963  0.28848844  1
  C  C7  1  0.49999638  0.22285883  0.41555444  1
  C  C8  1  0.49999443  0.22847458  0.54112326  1
  C  C9  1  0.49999455  0.23384519  0.66584646  1
  C  C10  1  0.49999587  0.23821683  0.78974491  1
  C  C11  1  0.49999630  0.23795454  0.91213179  1
  C  C12  1  0.49999999  0.25618855  0.10027634  1
  C  C13  1  0.50000007  0.25198714  0.22558891  1
  C  C14  1  0.49999865  0.25203945  0.35129456  1
  C  C15  1  0.49999671  0.25735197  0.47688215  1
  C  C16  1  0.49999560  0.26301793  0.60214915  1
  C  C17  1  0.49999613  0.26819458  0.72669925  1
  C  C18  1  0.49999760  0.27137201  0.85107381  1
  C  C19  1  0.49999772  0.26786262  0.97505120  1
  C  C20  1  0.50000571  0.32388461  0.10307828  1
  C  C21  1  0.50000120  0.32040379  0.22662529  1
  C  C22  1  0.50000009  0.32021423  0.35026388  1
  C  C23  1  0.49999986  0.32560712  0.47424047  1
  C  C24  1  0.49999864  0.33083698  0.60004986  1
  C  C25  1  0.49999830  0.33596339  0.72541776  1
  C  C26  1  0.49999901  0.33963651  0.85159092  1
  C  C27  1  0.50000270  0.33671903  0.97747291  1
  C  C28  1  0.50001304  0.36013598  0.04327879  1
  C  C29  1  0.50000515  0.35395377  0.16575004  1
  C  C30  1  0.50000066  0.35196651  0.28882186  1
  C  C31  1  0.50000131  0.35415210  0.41161101  1
  C  C32  1  0.50000071  0.36164392  0.53680897  1
  C  C33  1  0.49999958  0.36662131  0.66120659  1
  C  C34  1  0.49999934  0.37095900  0.78664116  1
  C  C35  1  0.49999935  0.37318668  0.91366452  1
  C  C36  1  0.50000308  0.42734523  0.53561343  1
  C  C37  1  0.50000163  0.43347818  0.65839072  1
  C  C38  1  0.50000178  0.43811116  0.78319656  1
  C  C39  1  0.49999567  0.44191291  0.90913275  1
  C  C40  1  0.50000298  0.46391246  0.59385974  1
  C  C41  1  0.50000239  0.46914438  0.71927493  1
  C  C42  1  0.50000136  0.47342597  0.84455398  1
  C  C43  1  0.49998366  0.48217064  0.96578891  1
  C  C44  1  0.50000391  0.53201071  0.59011439  1
  C  C45  1  0.50000301  0.53646276  0.71558638  1
  C  C46  1  0.50000262  0.54091798  0.84036089  1
  C  C47  1  0.49999148  0.54658379  0.96196092  1
  C  C48  1  0.50000542  0.56420371  0.52804150  1
  C  C49  1  0.50000328  0.56753530  0.65101540  1
  C  C50  1  0.50000331  0.57191347  0.77586992  1
  C  C51  1  0.50000182  0.57806927  0.90010342  1
  C  C52  1  0.50000513  0.62907052  0.52491165  1
  C  C53  1  0.50000317  0.63459794  0.64759854  1
  C  C54  1  0.50000328  0.63946988  0.77241099  1
  C  C55  1  0.50000319  0.64615379  0.89727555  1
  C  C56  1  0.50000333  0.66574086  0.58360761  1
  C  C57  1  0.50000294  0.66992661  0.70899675  1
  C  C58  1  0.50000317  0.67601260  0.83313107  1
  C  C59  1  0.50000229  0.68338709  0.95598617  1
  C  C60  1  0.50000155  0.73462277  0.58003259  1
  C  C61  1  0.50000193  0.73769546  0.70553120  1
  C  C62  1  0.50000243  0.74330679  0.82946467  1
  C  C63  1  0.50000114  0.74896529  0.95233917  1
  H  H64  1  0.49999945  0.81884507  0.52039964  1
  H  H65  1  0.49999883  0.81893789  0.64107652  1
  H  H66  1  0.50000092  0.82377831  0.76316651  1
  H  H67  1  0.50000131  0.83009687  0.88673833  1
  H  H68  1  0.49999812  0.17972626  0.02804483  1
  H  H69  1  0.49999836  0.17058699  0.15992364  1
  H  H70  1  0.49999906  0.16864949  0.28839675  1
  H  H71  1  0.49999384  0.17154046  0.41842107  1
  H  H72  1  0.49999198  0.17718777  0.54421056  1
  H  H73  1  0.49999305  0.18257645  0.66852468  1
  H  H74  1  0.49999388  0.18689217  0.79149528  1
  H  H75  1  0.49999514  0.18664705  0.91017797  1
  H  H76  1  0.49999927  0.74501941  0.47008362  1
  H  H77  1  0.50003309  0.40939768  0.05503994  1
  H  H78  1  0.50000639  0.40530755  0.16770518  1
  H  H79  1  0.50000109  0.40329367  0.28901220  1
  H  H80  1  0.50000363  0.40517736  0.40707823  1
  H  H81  1  0.50000461  0.45084558  0.48677746  1
  H  H82  1  0.49996073  0.46456987  0.01667355  1
  H  H83  1  0.49998540  0.57248270  0.00961673  1
  H  H84  1  0.50000671  0.53853366  0.48021907  1
  H  H85  1  0.50000631  0.65154440  0.47519004  1
  H  H86  1  0.50000241  0.66145322  0.00592612  1
  H  H87  1  0.49999953  0.77636492  -0.00080776  1
