# generated using pymatgen
data_H9C52
_symmetry_space_group_name_H-M   'P 1'
_cell_length_a   10.00000000
_cell_length_b   25.62946000
_cell_length_c   19.75594542
_cell_angle_alpha   90.00000000
_cell_angle_beta   90.00000000
_cell_angle_gamma   90.00000000
_symmetry_Int_Tables_number   1
_chemical_formula_structural   H9C52
_chemical_formula_sum   'H18 C104'
_cell_volume   5063.34212790
_cell_formula_units_Z   2
loop_
 _symmetry_equiv_pos_site_id
 _symmetry_equiv_pos_as_xyz
  1  'x, y, z'
loop_
 _atom_site_type_symbol
 _atom_site_label
 _atom_site_symmetry_multiplicity
 _atom_site_fract_x
 _atom_site_fract_y
 _atom_site_fract_z
 _atom_site_occupancy
  C  C0  1  0.50000011  0.22012597  0.51947010  1
  C  C1  1  0.50000003  0.23538802  0.63555455  1
  C  C2  1  0.50000002  0.23608676  0.75818876  1
  C  C3  1  0.49999982  0.23582996  0.88253466  1
  C  C4  1  0.50000028  0.25843030  0.57007830  1
  C  C5  1  0.50000006  0.26302108  0.69603101  1
  C  C6  1  0.49999990  0.26286806  0.81959192  1
  C  C7  1  0.49999991  0.26270899  0.94256539  1
  C  C8  1  0.49999963  0.32084983  0.07012521  1
  C  C9  1  0.49999925  0.32099467  0.19436458  1
  C  C10  1  0.49999933  0.32139564  0.31873887  1
  C  C11  1  0.49999989  0.32156981  0.44234701  1
  C  C12  1  0.50000046  0.31640543  0.56793826  1
  C  C13  1  0.50000033  0.31905382  0.69445420  1
  C  C14  1  0.50000016  0.31895435  0.81944939  1
  C  C15  1  0.50000015  0.31827907  0.94436256  1
  C  C16  1  0.50000015  0.34655645  0.00781379  1
  C  C17  1  0.49999948  0.34777063  0.13239066  1
  C  C18  1  0.49999918  0.34781697  0.25646276  1
  C  C19  1  0.49999947  0.34849717  0.38048851  1
  C  C20  1  0.50000023  0.34590387  0.50567705  1
  C  C21  1  0.50000065  0.34510208  0.63022517  1
  C  C22  1  0.50000045  0.34668988  0.75655453  1
  C  C23  1  0.50000041  0.34644421  0.88211957  1
  C  C24  1  0.50000052  0.40282712  0.00700768  1
  C  C25  1  0.49999991  0.40390385  0.13195446  1
  C  C26  1  0.49999948  0.40413040  0.25654805  1
  C  C27  1  0.49999954  0.40437939  0.38113463  1
  C  C28  1  0.50000014  0.40241031  0.50652966  1
  C  C29  1  0.50000067  0.40154709  0.63105394  1
  C  C30  1  0.50000080  0.40247992  0.75670363  1
  C  C31  1  0.50000077  0.40254472  0.88195739  1
  C  C32  1  0.50000036  0.43101902  0.06936782  1
  C  C33  1  0.49999990  0.43165239  0.19429622  1
  C  C34  1  0.49999967  0.43188858  0.31885054  1
  C  C35  1  0.49999984  0.43094300  0.44414944  1
  C  C36  1  0.50000021  0.42994261  0.56887925  1
  C  C37  1  0.50000061  0.42960528  0.69373662  1
  C  C38  1  0.50000072  0.43016782  0.81938844  1
  C  C39  1  0.50000059  0.43042112  0.94445824  1
  C  C40  1  0.50000018  0.48694417  0.06929627  1
  C  C41  1  0.50000012  0.48743196  0.19429315  1
  C  C42  1  0.49999998  0.48755483  0.31911905  1
  C  C43  1  0.49999987  0.48683226  0.44434396  1
  C  C44  1  0.49999987  0.48605139  0.56913620  1
  C  C45  1  0.49999993  0.48568350  0.69395135  1
  C  C46  1  0.50000003  0.48606209  0.81923769  1
  C  C47  1  0.50000009  0.48633955  0.94432183  1
  C  C48  1  0.49999984  0.51438610  0.00675470  1
  C  C49  1  0.49999997  0.51487282  0.13170670  1
  C  C50  1  0.50000000  0.51518827  0.25669031  1
  C  C51  1  0.49999989  0.51482695  0.38190707  1
  C  C52  1  0.49999980  0.51428595  0.50689895  1
  C  C53  1  0.49999966  0.51373719  0.63165610  1
  C  C54  1  0.49999958  0.51360819  0.75654291  1
  C  C55  1  0.49999967  0.51395319  0.88172991  1
  C  C56  1  0.49999939  0.57022768  0.00679589  1
  C  C57  1  0.49999950  0.57067668  0.13178649  1
  C  C58  1  0.49999968  0.57092136  0.25682292  1
  C  C59  1  0.49999979  0.57066202  0.38193365  1
  C  C60  1  0.49999986  0.57019352  0.50691947  1
  C  C61  1  0.49999951  0.56970802  0.63178305  1
  C  C62  1  0.49999917  0.56956940  0.75669364  1
  C  C63  1  0.49999923  0.56984033  0.88177889  1
  C  C64  1  0.49999942  0.59815217  0.06923814  1
  C  C65  1  0.49999958  0.59848435  0.19430149  1
  C  C66  1  0.49999978  0.59847697  0.31944841  1
  C  C67  1  0.49999997  0.59817669  0.44451813  1
  C  C68  1  0.49999993  0.59774415  0.56945705  1
  C  C69  1  0.49999937  0.59740864  0.69430834  1
  C  C70  1  0.49999922  0.59741141  0.81922233  1
  C  C71  1  0.49999937  0.59774042  0.94423583  1
  C  C72  1  0.49999983  0.65406965  0.06934881  1
  C  C73  1  0.50000012  0.65437429  0.19442505  1
  C  C74  1  0.50000029  0.65438500  0.31954038  1
  C  C75  1  0.50000030  0.65412599  0.44459051  1
  C  C76  1  0.50000006  0.65372842  0.56954007  1
  C  C77  1  0.49999982  0.65339860  0.69443400  1
  C  C78  1  0.49999975  0.65337244  0.81935002  1
  C  C79  1  0.49999974  0.65365916  0.94433452  1
  C  C80  1  0.49999997  0.68145724  0.00679177  1
  C  C81  1  0.50000036  0.68182348  0.13184902  1
  C  C82  1  0.50000062  0.68200973  0.25699721  1
  C  C83  1  0.50000057  0.68190477  0.38214758  1
  C  C84  1  0.50000019  0.68157868  0.50718089  1
  C  C85  1  0.49999996  0.68121188  0.63208251  1
  C  C86  1  0.49999997  0.68101526  0.75691959  1
  C  C87  1  0.49999996  0.68110142  0.88181184  1
  C  C88  1  0.50000022  0.73785468  0.00681046  1
  C  C89  1  0.50000081  0.73823393  0.13188191  1
  C  C90  1  0.50000107  0.73845049  0.25704924  1
  C  C91  1  0.50000073  0.73835828  0.38222229  1
  C  C92  1  0.49999994  0.73802567  0.50727880  1
  C  C93  1  0.49999983  0.73766055  0.63219971  1
  C  C94  1  0.50000009  0.73745712  0.75702057  1
  C  C95  1  0.50000010  0.73751459  0.88185972  1
  C  C96  1  0.50000052  0.76464616  0.06922938  1
  C  C97  1  0.50000099  0.76493354  0.19440949  1
  C  C98  1  0.50000090  0.76500092  0.31967515  1
  C  C99  1  0.50000023  0.76481231  0.44486790  1
  C  C100  1  0.49999960  0.76446633  0.56987324  1
  C  C101  1  0.49999995  0.76418891  0.69469943  1
  C  C102  1  0.50000006  0.76410655  0.81943832  1
  C  C103  1  0.50000011  0.76428097  0.94423197  1
  H  H104  1  0.50000008  0.17944475  0.53685014  1
  H  H105  1  0.49999970  0.19266204  0.63808701  1
  H  H106  1  0.50000009  0.19328935  0.75777803  1
  H  H107  1  0.49999977  0.19305618  0.88185847  1
  H  H108  1  0.50000047  0.80743546  0.06893544  1
  H  H109  1  0.50000076  0.80772370  0.19424028  1
  H  H110  1  0.50000058  0.80779659  0.31973987  1
  H  H111  1  0.50000008  0.80760769  0.44518858  1
  H  H112  1  0.49999919  0.80725456  0.57028177  1
  H  H113  1  0.50000001  0.80697267  0.69503667  1
  H  H114  1  0.50000000  0.80688965  0.81949178  1
  H  H115  1  0.50000008  0.80705820  0.94402965  1
  H  H116  1  0.50000000  0.22411511  0.46477926  1
  H  H117  1  0.49999996  0.24049360  0.98979887  1
  H  H118  1  0.49999939  0.27824841  0.07247291  1
  H  H119  1  0.49999930  0.27819718  0.19460882  1
  H  H120  1  0.49999956  0.27861388  0.31880816  1
  H  H121  1  0.50000001  0.27964815  0.43882531  1
