# generated using pymatgen
data_HC4
_symmetry_space_group_name_H-M   'P 1'
_cell_length_a   10.00000000
_cell_length_b   21.36688000
_cell_length_c   19.77205369
_cell_angle_alpha   90.00000000
_cell_angle_beta   90.00000000
_cell_angle_gamma   90.00000000
_symmetry_Int_Tables_number   1
_chemical_formula_structural   HC4
_chemical_formula_sum   'H20 C80'
_cell_volume   4224.67098509
_cell_formula_units_Z   20
loop_
 _symmetry_equiv_pos_site_id
 _symmetry_equiv_pos_as_xyz
  1  'x, y, z'
loop_
 _atom_site_type_symbol
 _atom_site_label
 _atom_site_symmetry_multiplicity
 _atom_site_fract_x
 _atom_site_fract_y
 _atom_site_fract_z
 _atom_site_occupancy
  C  C0  1  0.50000000  0.77072981  0.50530792  1
  C  C1  1  0.50000000  0.76713948  0.62732458  1
  C  C2  1  0.50000000  0.76898240  0.75000525  1
  C  C3  1  0.50000000  0.77697791  0.87161777  1
  C  C4  1  0.50000000  0.23177473  0.00721606  1
  C  C5  1  0.50000000  0.23000057  0.13280149  1
  C  C6  1  0.50000000  0.22937811  0.25902719  1
  C  C7  1  0.50000000  0.23048145  0.38482372  1
  C  C8  1  0.50000000  0.23226010  0.51008846  1
  C  C9  1  0.50000000  0.23399860  0.63470313  1
  C  C10  1  0.50000000  0.23457377  0.75866882  1
  C  C11  1  0.50000000  0.23361545  0.88263602  1
  C  C12  1  0.50000000  0.26255400  0.07032484  1
  C  C13  1  0.50000000  0.26102987  0.19607743  1
  C  C14  1  0.50000000  0.26156561  0.32171598  1
  C  C15  1  0.50000000  0.26317149  0.44706090  1
  C  C16  1  0.50000000  0.26515511  0.57201307  1
  C  C17  1  0.50000000  0.26664612  0.69662250  1
  C  C18  1  0.50000000  0.26642126  0.82086250  1
  C  C19  1  0.50000000  0.26477012  0.94528970  1
  C  C20  1  0.50000000  0.33032446  0.07057891  1
  C  C21  1  0.50000000  0.32876318  0.19619902  1
  C  C22  1  0.50000000  0.32935554  0.32141547  1
  C  C23  1  0.50000000  0.33088691  0.44656261  1
  C  C24  1  0.50000000  0.33285998  0.57164266  1
  C  C25  1  0.50000000  0.33439855  0.69660368  1
  C  C26  1  0.50000000  0.33424154  0.82108555  1
  C  C27  1  0.50000000  0.33255164  0.94551827  1
  C  C28  1  0.50000000  0.36446365  0.00833793  1
  C  C29  1  0.50000000  0.36204302  0.13377936  1
  C  C30  1  0.50000000  0.36195271  0.25862590  1
  C  C31  1  0.50000000  0.36303909  0.38367981  1
  C  C32  1  0.50000000  0.36493325  0.50865652  1
  C  C33  1  0.50000000  0.36670306  0.63382223  1
  C  C34  1  0.50000000  0.36785072  0.75898883  1
  C  C35  1  0.50000000  0.36691502  0.88363872  1
  C  C36  1  0.50000000  0.43168957  0.00855019  1
  C  C37  1  0.50000000  0.42894349  0.13419356  1
  C  C38  1  0.50000000  0.42910015  0.25851799  1
  C  C39  1  0.50000000  0.43029411  0.38334968  1
  C  C40  1  0.50000000  0.43215310  0.50829050  1
  C  C41  1  0.50000000  0.43395033  0.63364986  1
  C  C42  1  0.50000000  0.43544802  0.75923463  1
  C  C43  1  0.50000000  0.43448557  0.88386767  1
  C  C44  1  0.50000000  0.46213869  0.07211268  1
  C  C45  1  0.50000000  0.46217123  0.19634339  1
  C  C46  1  0.50000000  0.46244701  0.32070654  1
  C  C47  1  0.50000000  0.46445915  0.44541894  1
  C  C48  1  0.50000000  0.46608344  0.57069366  1
  C  C49  1  0.50000000  0.46789827  0.69612399  1
  C  C50  1  0.50000000  0.46909101  0.82182685  1
  C  C51  1  0.50000000  0.46684048  0.94642156  1
  C  C52  1  0.50000000  0.52882094  0.07313525  1
  C  C53  1  0.50000000  0.52986368  0.19642115  1
  C  C54  1  0.50000000  0.52978633  0.32005476  1
  C  C55  1  0.50000000  0.53185947  0.44408267  1
  C  C56  1  0.50000000  0.53317016  0.57013378  1
  C  C57  1  0.50000000  0.53506862  0.69590699  1
  C  C58  1  0.50000000  0.53720387  0.82251375  1
  C  C59  1  0.50000000  0.53492906  0.94752707  1
  C  C60  1  0.50000000  0.56154667  0.01186023  1
  C  C61  1  0.50000000  0.56170910  0.13442238  1
  C  C62  1  0.50000000  0.56190473  0.25841318  1
  C  C63  1  0.50000000  0.56238930  0.38204044  1
  C  C64  1  0.50000000  0.56604804  0.50760085  1
  C  C65  1  0.50000000  0.56741606  0.63223240  1
  C  C66  1  0.50000000  0.56916197  0.75803205  1
  C  C67  1  0.50000000  0.57149562  0.88489268  1
  C  C68  1  0.50000000  0.63174541  0.50804588  1
  C  C69  1  0.50000000  0.63427344  0.63061595  1
  C  C70  1  0.50000000  0.63636865  0.75582912  1
  C  C71  1  0.50000000  0.64085233  0.88241108  1
  C  C72  1  0.50000000  0.66673552  0.56695179  1
  C  C73  1  0.50000000  0.66792391  0.69247394  1
  C  C74  1  0.50000000  0.67140788  0.81754115  1
  C  C75  1  0.50000000  0.68280492  0.93840826  1
  C  C76  1  0.50000000  0.73579295  0.56432760  1
  C  C77  1  0.50000000  0.73548976  0.68947950  1
  C  C78  1  0.50000000  0.73910740  0.81307823  1
  C  C79  1  0.50000000  0.74810753  0.93375481  1
  H  H80  1  0.50000000  0.82194502  0.50873569  1
  H  H81  1  0.50000000  0.81846433  0.62778783  1
  H  H82  1  0.50000000  0.82024911  0.74845021  1
  H  H83  1  0.50000000  0.82798742  0.86629740  1
  H  H84  1  0.50000000  0.18045442  0.00602636  1
  H  H85  1  0.50000000  0.17864615  0.13211768  1
  H  H86  1  0.50000000  0.17799222  0.25927923  1
  H  H87  1  0.50000000  0.17910248  0.38583395  1
  H  H88  1  0.50000000  0.18091487  0.51125386  1
  H  H89  1  0.50000000  0.18268882  0.63553708  1
  H  H90  1  0.50000000  0.18327057  0.75846699  1
  H  H91  1  0.50000000  0.18229815  0.88173544  1
  H  H92  1  0.50000000  0.75063007  0.45445582  1
  H  H93  1  0.50000000  0.61102417  0.01975616  1
  H  H94  1  0.50000000  0.61307117  0.13375503  1
  H  H95  1  0.50000000  0.61319152  0.25845052  1
  H  H96  1  0.50000000  0.61347248  0.37900500  1
  H  H97  1  0.50000000  0.65665070  0.45993798  1
  H  H98  1  0.50000000  0.66791103  0.99032259  1
  H  H99  1  0.50000000  0.77543434  0.98066821  1
