# generated using pymatgen
data_H15C44
_symmetry_space_group_name_H-M   'P 1'
_cell_length_a   10.00000000
_cell_length_b   29.89204000
_cell_length_c   19.75986756
_cell_angle_alpha   90.00000000
_cell_angle_beta   90.00000000
_cell_angle_gamma   90.00000000
_symmetry_Int_Tables_number   1
_chemical_formula_structural   H15C44
_chemical_formula_sum   'H30 C88'
_cell_volume   5906.62751418
_cell_formula_units_Z   2
loop_
 _symmetry_equiv_pos_site_id
 _symmetry_equiv_pos_as_xyz
  1  'x, y, z'
loop_
 _atom_site_type_symbol
 _atom_site_label
 _atom_site_symmetry_multiplicity
 _atom_site_fract_x
 _atom_site_fract_y
 _atom_site_fract_z
 _atom_site_occupancy
  C  C0  1  0.50000000  0.19503553  0.03761710  1
  C  C1  1  0.50000000  0.18981996  0.16608230  1
  C  C2  1  0.50000000  0.19117478  0.29328657  1
  C  C3  1  0.50000000  0.19573036  0.41960269  1
  C  C4  1  0.50000000  0.20025450  0.54366185  1
  C  C5  1  0.50000000  0.20252906  0.66752758  1
  C  C6  1  0.50000000  0.20348599  0.79133697  1
  C  C7  1  0.50000000  0.20132981  0.91406887  1
  C  C8  1  0.50000000  0.21326501  0.10360521  1
  C  C9  1  0.50000000  0.21253143  0.22934280  1
  C  C10  1  0.50000000  0.21556969  0.35492643  1
  C  C11  1  0.50000000  0.22119740  0.48001049  1
  C  C12  1  0.50000000  0.22450813  0.60481755  1
  C  C13  1  0.50000000  0.22607263  0.72911694  1
  C  C14  1  0.50000000  0.22613328  0.85355324  1
  C  C15  1  0.50000000  0.22174756  0.97785447  1
  C  C16  1  0.50000000  0.26160286  0.10596467  1
  C  C17  1  0.50000000  0.26144333  0.22928340  1
  C  C18  1  0.50000000  0.26435023  0.35290240  1
  C  C19  1  0.50000000  0.27005423  0.47717527  1
  C  C20  1  0.50000000  0.27298211  0.60341894  1
  C  C21  1  0.50000000  0.27447605  0.72896199  1
  C  C22  1  0.50000000  0.27487010  0.85516267  1
  C  C23  1  0.50000000  0.27091072  0.98081337  1
  C  C24  1  0.50000000  0.28737151  0.04641854  1
  C  C25  1  0.50000000  0.28419112  0.16763493  1
  C  C26  1  0.50000000  0.28560813  0.29032086  1
  C  C27  1  0.50000000  0.28961074  0.41379744  1
  C  C28  1  0.50000000  0.29585360  0.54041886  1
  C  C29  1  0.50000000  0.29756631  0.66549499  1
  C  C30  1  0.50000000  0.29840331  0.79116149  1
  C  C31  1  0.50000000  0.29780638  0.91803303  1
  C  C32  1  0.50000000  0.34297927  0.54113987  1
  C  C33  1  0.50000000  0.34546081  0.66448976  1
  C  C34  1  0.50000000  0.34638481  0.78957710  1
  C  C35  1  0.50000000  0.34678409  0.91556433  1
  C  C36  1  0.50000000  0.36838179  0.60077803  1
  C  C37  1  0.50000000  0.36987641  0.72659655  1
  C  C38  1  0.50000000  0.37042855  0.85196332  1
  C  C39  1  0.50000000  0.37447002  0.97351559  1
  C  C40  1  0.50000000  0.41727001  0.60001627  1
  C  C41  1  0.50000000  0.41799646  0.72541779  1
  C  C42  1  0.50000000  0.41864824  0.85008153  1
  C  C43  1  0.50000000  0.42030080  0.97192496  1
  C  C44  1  0.50000000  0.44201795  0.53928068  1
  C  C45  1  0.50000000  0.44161392  0.66219585  1
  C  C46  1  0.50000000  0.44231326  0.78697698  1
  C  C47  1  0.50000000  0.44387013  0.91101037  1
  C  C48  1  0.50000000  0.48836279  0.53882776  1
  C  C49  1  0.50000000  0.48980335  0.66173154  1
  C  C50  1  0.50000000  0.49060214  0.78633383  1
  C  C51  1  0.50000000  0.49201963  0.91095997  1
  C  C52  1  0.50000000  0.51354361  0.59912952  1
  C  C53  1  0.50000000  0.51434212  0.72412646  1
  C  C54  1  0.50000000  0.51531911  0.84849067  1
  C  C55  1  0.50000000  0.51653413  0.97185854  1
  C  C56  1  0.50000000  0.56222357  0.59881266  1
  C  C57  1  0.50000000  0.56255960  0.72395822  1
  C  C58  1  0.50000000  0.56322436  0.84858736  1
  C  C59  1  0.50000000  0.56266612  0.97194298  1
  C  C60  1  0.50000000  0.58698714  0.53816257  1
  C  C61  1  0.50000000  0.58639091  0.66108034  1
  C  C62  1  0.50000000  0.58690863  0.78578216  1
  C  C63  1  0.50000000  0.58709082  0.91107138  1
  C  C64  1  0.50000000  0.63333625  0.53789935  1
  C  C65  1  0.50000000  0.63451002  0.66080701  1
  C  C66  1  0.50000000  0.63498867  0.78572348  1
  C  C67  1  0.50000000  0.63553579  0.91111256  1
  C  C68  1  0.50000000  0.65838393  0.59819065  1
  C  C69  1  0.50000000  0.65855513  0.72357156  1
  C  C70  1  0.50000000  0.65912939  0.84852473  1
  C  C71  1  0.50000000  0.66033285  0.97169960  1
  C  C72  1  0.50000000  0.70724156  0.59787566  1
  C  C73  1  0.50000000  0.70667858  0.72359917  1
  C  C74  1  0.50000000  0.70711028  0.84870316  1
  C  C75  1  0.50000000  0.70670307  0.97173941  1
  C  C76  1  0.50000000  0.73240334  0.53761966  1
  C  C77  1  0.50000000  0.73060543  0.66077471  1
  C  C78  1  0.50000000  0.73041960  0.78554232  1
  C  C79  1  0.50000000  0.73120487  0.91123662  1
  C  C80  1  0.50000000  0.77936186  0.53838425  1
  C  C81  1  0.50000000  0.77884313  0.66145133  1
  C  C82  1  0.50000000  0.77888161  0.78583952  1
  C  C83  1  0.50000000  0.78047088  0.91155372  1
  C  C84  1  0.50000000  0.80247442  0.59918974  1
  C  C85  1  0.50000000  0.80173044  0.72367061  1
  C  C86  1  0.50000000  0.80215720  0.84761622  1
  C  C87  1  0.50000000  0.80577911  0.97029319  1
  H  H88  1  0.50000000  0.15856984  0.03081680  1
  H  H89  1  0.50000000  0.15308165  0.16595245  1
  H  H90  1  0.50000000  0.15448259  0.29530564  1
  H  H91  1  0.50000000  0.15910734  0.42386744  1
  H  H92  1  0.50000000  0.16358781  0.54602305  1
  H  H93  1  0.50000000  0.16583851  0.66865090  1
  H  H94  1  0.50000000  0.16679617  0.79160509  1
  H  H95  1  0.50000000  0.16470627  0.91074547  1
  H  H96  1  0.50000000  0.83913774  0.60039009  1
  H  H97  1  0.50000000  0.83842963  0.72372579  1
  H  H98  1  0.50000000  0.83884312  0.84638133  1
  H  H99  1  0.50000000  0.84237587  0.96701161  1
  H  H100  1  0.50000000  0.32235892  0.05869865  1
  H  H101  1  0.50000000  0.32089586  0.16778990  1
  H  H102  1  0.50000000  0.32230062  0.28814698  1
  H  H103  1  0.50000000  0.32604789  0.40808409  1
  H  H104  1  0.50000000  0.36054700  0.49271986  1
  H  H105  1  0.50000000  0.36151131  0.02403992  1
  H  H106  1  0.50000000  0.43771136  0.02045975  1
  H  H107  1  0.50000000  0.42475572  0.49049143  1
  H  H108  1  0.50000000  0.50537772  0.48987065  1
  H  H109  1  0.50000000  0.49918436  0.02046547  1
  H  H110  1  0.50000000  0.57990154  0.02068886  1
  H  H111  1  0.50000000  0.56965637  0.48947712  1
  H  H112  1  0.50000000  0.65034700  0.48893188  1
  H  H113  1  0.50000000  0.64316016  0.02048320  1
  H  H114  1  0.50000000  0.72414837  0.02041627  1
  H  H115  1  0.50000000  0.71549303  0.48857222  1
  H  H116  1  0.50000000  0.79777014  0.49041892  1
  H  H117  1  0.50000000  0.79120741  0.02105975  1
