# generated using pymatgen
data_H5C24
_symmetry_space_group_name_H-M   'P 1'
_cell_length_a   10.00000000
_cell_length_b   25.62946000
_cell_length_c   19.79072736
_cell_angle_alpha   90.00000000
_cell_angle_beta   90.00000000
_cell_angle_gamma   90.00000000
_symmetry_Int_Tables_number   1
_chemical_formula_structural   H5C24
_chemical_formula_sum   'H20 C96'
_cell_volume   5072.25655181
_cell_formula_units_Z   4
loop_
 _symmetry_equiv_pos_site_id
 _symmetry_equiv_pos_as_xyz
  1  'x, y, z'
loop_
 _atom_site_type_symbol
 _atom_site_label
 _atom_site_symmetry_multiplicity
 _atom_site_fract_x
 _atom_site_fract_y
 _atom_site_fract_z
 _atom_site_occupancy
  C  C0  1  0.50000000  0.21958133  0.52139609  1
  C  C1  1  0.50000000  0.23538367  0.63708248  1
  C  C2  1  0.50000000  0.23647464  0.75930824  1
  C  C3  1  0.50000000  0.23605052  0.88327707  1
  C  C4  1  0.50000000  0.25817012  0.57155338  1
  C  C5  1  0.50000000  0.26327912  0.69719074  1
  C  C6  1  0.50000000  0.26320703  0.82052378  1
  C  C7  1  0.50000000  0.26286440  0.94315239  1
  C  C8  1  0.50000000  0.32032017  0.07031796  1
  C  C9  1  0.50000000  0.32007359  0.19462494  1
  C  C10  1  0.50000000  0.32025308  0.31949286  1
  C  C11  1  0.50000000  0.32083442  0.44329343  1
  C  C12  1  0.50000000  0.31615996  0.56896684  1
  C  C13  1  0.50000000  0.31927762  0.69540896  1
  C  C14  1  0.50000000  0.31926835  0.82025910  1
  C  C15  1  0.50000000  0.31841659  0.94489188  1
  C  C16  1  0.50000000  0.34638281  0.00832380  1
  C  C17  1  0.50000000  0.34696792  0.13268662  1
  C  C18  1  0.50000000  0.34655715  0.25701744  1
  C  C19  1  0.50000000  0.34748230  0.38119948  1
  C  C20  1  0.50000000  0.34536845  0.50651321  1
  C  C21  1  0.50000000  0.34510849  0.63110602  1
  C  C22  1  0.50000000  0.34696512  0.75736876  1
  C  C23  1  0.50000000  0.34668153  0.88281649  1
  C  C24  1  0.50000000  0.40256220  0.00747634  1
  C  C25  1  0.50000000  0.40307077  0.13234048  1
  C  C26  1  0.50000000  0.40292250  0.25711031  1
  C  C27  1  0.50000000  0.40336344  0.38177039  1
  C  C28  1  0.50000000  0.40185169  0.50726985  1
  C  C29  1  0.50000000  0.40160704  0.63174831  1
  C  C30  1  0.50000000  0.40277550  0.75734833  1
  C  C31  1  0.50000000  0.40272567  0.88253373  1
  C  C32  1  0.50000000  0.43038856  0.06986138  1
  C  C33  1  0.50000000  0.43044363  0.19485244  1
  C  C34  1  0.50000000  0.43071222  0.31939106  1
  C  C35  1  0.50000000  0.43004632  0.44473110  1
  C  C36  1  0.50000000  0.42970496  0.56943875  1
  C  C37  1  0.50000000  0.42986987  0.69439079  1
  C  C38  1  0.50000000  0.43044069  0.81999254  1
  C  C39  1  0.50000000  0.43033642  0.94506834  1
  C  C40  1  0.50000000  0.48626971  0.06976197  1
  C  C41  1  0.50000000  0.48616518  0.19488827  1
  C  C42  1  0.50000000  0.48639203  0.31963460  1
  C  C43  1  0.50000000  0.48596251  0.44474668  1
  C  C44  1  0.50000000  0.48581402  0.56955018  1
  C  C45  1  0.50000000  0.48600996  0.69469123  1
  C  C46  1  0.50000000  0.48636838  0.81999948  1
  C  C47  1  0.50000000  0.48626107  0.94490828  1
  C  C48  1  0.50000000  0.51403626  0.00730702  1
  C  C49  1  0.50000000  0.51361401  0.13241564  1
  C  C50  1  0.50000000  0.51384272  0.25716137  1
  C  C51  1  0.50000000  0.51373111  0.38229243  1
  C  C52  1  0.50000000  0.51373785  0.50714302  1
  C  C53  1  0.50000000  0.51363107  0.63205076  1
  C  C54  1  0.50000000  0.51398925  0.75736035  1
  C  C55  1  0.50000000  0.51418309  0.88249869  1
  C  C56  1  0.50000000  0.56995144  0.00732111  1
  C  C57  1  0.50000000  0.56929542  0.13265852  1
  C  C58  1  0.50000000  0.56956411  0.25719886  1
  C  C59  1  0.50000000  0.56961209  0.38219214  1
  C  C60  1  0.50000000  0.56966331  0.50698364  1
  C  C61  1  0.50000000  0.56955962  0.63205802  1
  C  C62  1  0.50000000  0.57012944  0.75765883  1
  C  C63  1  0.50000000  0.57028928  0.88260680  1
  C  C64  1  0.50000000  0.59664245  0.07027821  1
  C  C65  1  0.50000000  0.59708736  0.19493954  1
  C  C66  1  0.50000000  0.59693174  0.31971485  1
  C  C67  1  0.50000000  0.59743812  0.44457661  1
  C  C68  1  0.50000000  0.59727453  0.56951657  1
  C  C69  1  0.50000000  0.59722607  0.69470320  1
  C  C70  1  0.50000000  0.59839082  0.82029941  1
  C  C71  1  0.50000000  0.59813781  0.94477581  1
  C  C72  1  0.50000000  0.65252637  0.07084267  1
  C  C73  1  0.50000000  0.65345366  0.19503197  1
  C  C74  1  0.50000000  0.65303486  0.31937049  1
  C  C75  1  0.50000000  0.65361652  0.44372922  1
  C  C76  1  0.50000000  0.65332005  0.56923191  1
  C  C77  1  0.50000000  0.65303784  0.69468333  1
  C  C78  1  0.50000000  0.65488928  0.82093951  1
  C  C79  1  0.50000000  0.65461604  0.94552445  1
  C  C80  1  0.50000000  0.67915650  0.00873547  1
  C  C81  1  0.50000000  0.67975532  0.13255143  1
  C  C82  1  0.50000000  0.67993078  0.25743408  1
  C  C83  1  0.50000000  0.67968257  0.38174022  1
  C  C84  1  0.50000000  0.68158602  0.50715825  1
  C  C85  1  0.50000000  0.68073194  0.63179128  1
  C  C86  1  0.50000000  0.68072803  0.75664107  1
  C  C87  1  0.50000000  0.68383148  0.88307810  1
  C  C88  1  0.50000000  0.73714098  0.50888854  1
  C  C89  1  0.50000000  0.73679043  0.63152858  1
  C  C90  1  0.50000000  0.73673011  0.75487083  1
  C  C91  1  0.50000000  0.74181845  0.88051034  1
  C  C92  1  0.50000000  0.76395003  0.56877504  1
  C  C93  1  0.50000000  0.76352887  0.69274338  1
  C  C94  1  0.50000000  0.76461441  0.81498932  1
  C  C95  1  0.50000000  0.78040068  0.93067987  1
  H  H96  1  0.50000000  0.17908195  0.53928102  1
  H  H97  1  0.50000000  0.19266413  0.64037482  1
  H  H98  1  0.50000000  0.19370826  0.75908928  1
  H  H99  1  0.50000000  0.19328131  0.88288523  1
  H  H100  1  0.50000000  0.80671772  0.56920954  1
  H  H101  1  0.50000000  0.80629637  0.69293589  1
  H  H102  1  0.50000000  0.80733479  0.81175006  1
  H  H103  1  0.50000000  0.82091704  0.91286056  1
  H  H104  1  0.50000000  0.22282571  0.46672735  1
  H  H105  1  0.50000000  0.24062748  0.99026991  1
  H  H106  1  0.50000000  0.27768381  0.07221980  1
  H  H107  1  0.50000000  0.27731317  0.19409666  1
  H  H108  1  0.50000000  0.27744220  0.32015531  1
  H  H109  1  0.50000000  0.27889714  0.43985249  1
  H  H110  1  0.50000000  0.72109497  0.01207239  1
  H  H111  1  0.50000000  0.72256370  0.13188834  1
  H  H112  1  0.50000000  0.72269029  0.25801333  1
  H  H113  1  0.50000000  0.72231952  0.37987627  1
  H  H114  1  0.50000000  0.75936859  0.46175646  1
  H  H115  1  0.50000000  0.77714896  0.98534169  1
