# generated using pymatgen
data_H5C36
_symmetry_space_group_name_H-M   'P 1'
_cell_length_a   10.00000000
_cell_length_b   29.89204000
_cell_length_c   19.76618701
_cell_angle_alpha   90.00000000
_cell_angle_beta   90.00000000
_cell_angle_gamma   90.00000000
_symmetry_Int_Tables_number   1
_chemical_formula_structural   H5C36
_chemical_formula_sum   'H20 C144'
_cell_volume   5908.51652613
_cell_formula_units_Z   4
loop_
 _symmetry_equiv_pos_site_id
 _symmetry_equiv_pos_as_xyz
  1  'x, y, z'
loop_
 _atom_site_type_symbol
 _atom_site_label
 _atom_site_symmetry_multiplicity
 _atom_site_fract_x
 _atom_site_fract_y
 _atom_site_fract_z
 _atom_site_occupancy
  C  C0  1  0.50000000  0.83685519  0.50590770  1
  C  C1  1  0.50000000  0.83427467  0.62788353  1
  C  C2  1  0.50000000  0.83563578  0.75037341  1
  C  C3  1  0.50000000  0.84142125  0.87179609  1
  C  C4  1  0.50000000  0.16556392  0.00725959  1
  C  C5  1  0.50000000  0.16547937  0.13239454  1
  C  C6  1  0.50000000  0.16551039  0.25756213  1
  C  C7  1  0.50000000  0.16564259  0.38268562  1
  C  C8  1  0.50000000  0.16579712  0.50768479  1
  C  C9  1  0.50000000  0.16586807  0.63257670  1
  C  C10  1  0.50000000  0.16582906  0.75739103  1
  C  C11  1  0.50000000  0.16570492  0.88227013  1
  C  C12  1  0.50000000  0.18830032  0.06986295  1
  C  C13  1  0.50000000  0.18825461  0.19498372  1
  C  C14  1  0.50000000  0.18833725  0.32009844  1
  C  C15  1  0.50000000  0.18850589  0.44515751  1
  C  C16  1  0.50000000  0.18864448  0.57012749  1
  C  C17  1  0.50000000  0.18869345  0.69501381  1
  C  C18  1  0.50000000  0.18859944  0.81987662  1
  C  C19  1  0.50000000  0.18845447  0.94480977  1
  C  C20  1  0.50000000  0.23671164  0.06993823  1
  C  C21  1  0.50000000  0.23664988  0.19503994  1
  C  C22  1  0.50000000  0.23671225  0.32015280  1
  C  C23  1  0.50000000  0.23686077  0.44523638  1
  C  C24  1  0.50000000  0.23701172  0.57021241  1
  C  C25  1  0.50000000  0.23707872  0.69510945  1
  C  C26  1  0.50000000  0.23701153  0.81996397  1
  C  C27  1  0.50000000  0.23686600  0.94489138  1
  C  C28  1  0.50000000  0.26048183  0.00746333  1
  C  C29  1  0.50000000  0.26035495  0.13252309  1
  C  C30  1  0.50000000  0.26033534  0.25761171  1
  C  C31  1  0.50000000  0.26042880  0.38271272  1
  C  C32  1  0.50000000  0.26062537  0.50774203  1
  C  C33  1  0.50000000  0.26076119  0.63268853  1
  C  C34  1  0.50000000  0.26079495  0.75757851  1
  C  C35  1  0.50000000  0.26066918  0.88247725  1
  C  C36  1  0.50000000  0.30842946  0.00754130  1
  C  C37  1  0.50000000  0.30827663  0.13260440  1
  C  C38  1  0.50000000  0.30823575  0.25773463  1
  C  C39  1  0.50000000  0.30832786  0.38286839  1
  C  C40  1  0.50000000  0.30855127  0.50790690  1
  C  C41  1  0.50000000  0.30871698  0.63283976  1
  C  C42  1  0.50000000  0.30876551  0.75770069  1
  C  C43  1  0.50000000  0.30863902  0.88257821  1
  C  C44  1  0.50000000  0.33211050  0.07010982  1
  C  C45  1  0.50000000  0.33196489  0.19520398  1
  C  C46  1  0.50000000  0.33197434  0.32034461  1
  C  C47  1  0.50000000  0.33219658  0.44539433  1
  C  C48  1  0.50000000  0.33245176  0.57040445  1
  C  C49  1  0.50000000  0.33260713  0.69530633  1
  C  C50  1  0.50000000  0.33255415  0.82018946  1
  C  C51  1  0.50000000  0.33234645  0.94511895  1
  C  C52  1  0.50000000  0.37993234  0.07014309  1
  C  C53  1  0.50000000  0.37973895  0.19529842  1
  C  C54  1  0.50000000  0.37974726  0.32051935  1
  C  C55  1  0.50000000  0.38001680  0.44559217  1
  C  C56  1  0.50000000  0.38032817  0.57061875  1
  C  C57  1  0.50000000  0.38051546  0.69547770  1
  C  C58  1  0.50000000  0.38045744  0.82030666  1
  C  C59  1  0.50000000  0.38021599  0.94518001  1
  C  C60  1  0.50000000  0.40389799  0.00770579  1
  C  C61  1  0.50000000  0.40353604  0.13276824  1
  C  C62  1  0.50000000  0.40338531  0.25796465  1
  C  C63  1  0.50000000  0.40362306  0.38306267  1
  C  C64  1  0.50000000  0.40398896  0.50810912  1
  C  C65  1  0.50000000  0.40437331  0.63308300  1
  C  C66  1  0.50000000  0.40444348  0.75795412  1
  C  C67  1  0.50000000  0.40423538  0.88280311  1
  C  C68  1  0.50000000  0.45172123  0.00768303  1
  C  C69  1  0.50000000  0.45126319  0.13283105  1
  C  C70  1  0.50000000  0.45107963  0.25813244  1
  C  C71  1  0.50000000  0.45138755  0.38325899  1
  C  C72  1  0.50000000  0.45181113  0.50831623  1
  C  C73  1  0.50000000  0.45230721  0.63332778  1
  C  C74  1  0.50000000  0.45240271  0.75812646  1
  C  C75  1  0.50000000  0.45214792  0.88283481  1
  C  C76  1  0.50000000  0.47520925  0.07032877  1
  C  C77  1  0.50000000  0.47470477  0.19559739  1
  C  C78  1  0.50000000  0.47492118  0.32068156  1
  C  C79  1  0.50000000  0.47537642  0.44574110  1
  C  C80  1  0.50000000  0.47594995  0.57077094  1
  C  C81  1  0.50000000  0.47641271  0.69580850  1
  C  C82  1  0.50000000  0.47632246  0.82056468  1
  C  C83  1  0.50000000  0.47585363  0.94532554  1
  C  C84  1  0.50000000  0.52294695  0.07039530  1
  C  C85  1  0.50000000  0.52232098  0.19581521  1
  C  C86  1  0.50000000  0.52263945  0.32081198  1
  C  C87  1  0.50000000  0.52316787  0.44582092  1
  C  C88  1  0.50000000  0.52385128  0.57089679  1
  C  C89  1  0.50000000  0.52442474  0.69601833  1
  C  C90  1  0.50000000  0.52437184  0.82068948  1
  C  C91  1  0.50000000  0.52375889  0.94531443  1
  C  C92  1  0.50000000  0.54712708  0.00792994  1
  C  C93  1  0.50000000  0.54600019  0.13343146  1
  C  C94  1  0.50000000  0.54609420  0.25822869  1
  C  C95  1  0.50000000  0.54658834  0.38324200  1
  C  C96  1  0.50000000  0.54736164  0.50821801  1
  C  C97  1  0.50000000  0.54800842  0.63335726  1
  C  C98  1  0.50000000  0.54860704  0.75851628  1
  C  C99  1  0.50000000  0.54818752  0.88319137  1
  C  C100  1  0.50000000  0.59495022  0.00826592  1
  C  C101  1  0.50000000  0.59355441  0.13394240  1
  C  C102  1  0.50000000  0.59382459  0.25828732  1
  C  C103  1  0.50000000  0.59441154  0.38312164  1
  C  C104  1  0.50000000  0.59517577  0.50809777  1
  C  C105  1  0.50000000  0.59594843  0.63342551  1
  C  C106  1  0.50000000  0.59683645  0.75899448  1
  C  C107  1  0.50000000  0.59632203  0.88357985  1
  C  C108  1  0.50000000  0.61703912  0.07172619  1
  C  C109  1  0.50000000  0.61741162  0.19612042  1
  C  C110  1  0.50000000  0.61757992  0.32059348  1
  C  C111  1  0.50000000  0.61858364  0.44539892  1
  C  C112  1  0.50000000  0.61925656  0.57066264  1
  C  C113  1  0.50000000  0.62024056  0.69596987  1
  C  C114  1  0.50000000  0.62109874  0.82154429  1
  C  C115  1  0.50000000  0.61975440  0.94601655  1
  C  C116  1  0.50000000  0.66461314  0.07273692  1
  C  C117  1  0.50000000  0.66566065  0.19631403  1
  C  C118  1  0.50000000  0.66560561  0.32015226  1
  C  C119  1  0.50000000  0.66659305  0.44428708  1
  C  C120  1  0.50000000  0.66711190  0.57022098  1
  C  C121  1  0.50000000  0.66818454  0.69587912  1
  C  C122  1  0.50000000  0.66975316  0.82225769  1
  C  C123  1  0.50000000  0.66829479  0.94706198  1
  C  C124  1  0.50000000  0.68769654  0.01121427  1
  C  C125  1  0.50000000  0.68819862  0.13409645  1
  C  C126  1  0.50000000  0.68862209  0.25839684  1
  C  C127  1  0.50000000  0.68867412  0.38232698  1
  C  C128  1  0.50000000  0.69081851  0.50781688  1
  C  C129  1  0.50000000  0.69147979  0.63233916  1
  C  C130  1  0.50000000  0.69260608  0.75801864  1
  C  C131  1  0.50000000  0.69442274  0.88465260  1
  C  C132  1  0.50000000  0.73768270  0.50839698  1
  C  C133  1  0.50000000  0.73925663  0.63093492  1
  C  C134  1  0.50000000  0.74064215  0.75606588  1
  C  C135  1  0.50000000  0.74398914  0.88256572  1
  C  C136  1  0.50000000  0.76256966  0.56743902  1
  C  C137  1  0.50000000  0.76329298  0.69281066  1
  C  C138  1  0.50000000  0.76580990  0.81772535  1
  C  C139  1  0.50000000  0.77414722  0.93858748  1
  C  C140  1  0.50000000  0.81189250  0.56491043  1
  C  C141  1  0.50000000  0.81159399  0.68992229  1
  C  C142  1  0.50000000  0.81423387  0.81333874  1
  C  C143  1  0.50000000  0.82082941  0.93394244  1
  H  H144  1  0.50000000  0.87345898  0.50926351  1
  H  H145  1  0.50000000  0.87096083  0.62853653  1
  H  H146  1  0.50000000  0.87230729  0.74895223  1
  H  H147  1  0.50000000  0.87787171  0.86632801  1
  H  H148  1  0.50000000  0.12885297  0.00701115  1
  H  H149  1  0.50000000  0.12877446  0.13230341  1
  H  H150  1  0.50000000  0.12881705  0.25756513  1
  H  H151  1  0.50000000  0.12895825  0.38283596  1
  H  H152  1  0.50000000  0.12912129  0.50777139  1
  H  H153  1  0.50000000  0.12918407  0.63258278  1
  H  H154  1  0.50000000  0.12913779  0.75721758  1
  H  H155  1  0.50000000  0.12900248  0.88208089  1
  H  H156  1  0.50000000  0.82243667  0.45510602  1
  H  H157  1  0.50000000  0.72312598  0.01810454  1
  H  H158  1  0.50000000  0.72488744  0.13346272  1
  H  H159  1  0.50000000  0.72528307  0.25843614  1
  H  H160  1  0.50000000  0.72519794  0.37977555  1
  H  H161  1  0.50000000  0.75563071  0.46043807  1
  H  H162  1  0.50000000  0.76403268  0.99077183  1
  H  H163  1  0.50000000  0.84028023  0.98100297  1
