# generated using pymatgen
data_H3C14
_symmetry_space_group_name_H-M   'P 1'
_cell_length_a   10.00000000
_cell_length_b   29.89204000
_cell_length_c   19.77266664
_cell_angle_alpha   90.00000000
_cell_angle_beta   90.00000000
_cell_angle_gamma   90.00000000
_symmetry_Int_Tables_number   1
_chemical_formula_structural   H3C14
_chemical_formula_sum   'H24 C112'
_cell_volume   5910.45342239
_cell_formula_units_Z   8
loop_
 _symmetry_equiv_pos_site_id
 _symmetry_equiv_pos_as_xyz
  1  'x, y, z'
loop_
 _atom_site_type_symbol
 _atom_site_label
 _atom_site_symmetry_multiplicity
 _atom_site_fract_x
 _atom_site_fract_y
 _atom_site_fract_z
 _atom_site_occupancy
  C  C0  1  0.50000000  0.20006646  0.49712495  1
  C  C1  1  0.50000000  0.20124706  0.61938425  1
  C  C2  1  0.50000000  0.19821124  0.74295072  1
  C  C3  1  0.50000000  0.19466854  0.86759149  1
  C  C4  1  0.50000000  0.22441035  0.55673017  1
  C  C5  1  0.50000000  0.22286693  0.68237072  1
  C  C6  1  0.50000000  0.21947508  0.80631848  1
  C  C7  1  0.50000000  0.21650787  0.92945358  1
  C  C8  1  0.50000000  0.27363404  0.55965929  1
  C  C9  1  0.50000000  0.27128051  0.68509858  1
  C  C10  1  0.50000000  0.26762227  0.80900700  1
  C  C11  1  0.50000000  0.26334339  0.93202652  1
  C  C12  1  0.50000000  0.29966997  0.50070846  1
  C  C13  1  0.50000000  0.29616021  0.62344696  1
  C  C14  1  0.50000000  0.29354378  0.74811939  1
  C  C15  1  0.50000000  0.28939017  0.87265551  1
  C  C16  1  0.50000000  0.34599115  0.50347799  1
  C  C17  1  0.50000000  0.34413784  0.62643552  1
  C  C18  1  0.50000000  0.34187466  0.75090257  1
  C  C19  1  0.50000000  0.33791974  0.87446907  1
  C  C20  1  0.50000000  0.36918482  0.56550155  1
  C  C21  1  0.50000000  0.36702572  0.69044640  1
  C  C22  1  0.50000000  0.36452171  0.81479352  1
  C  C23  1  0.50000000  0.36071818  0.93588865  1
  C  C24  1  0.50000000  0.41767101  0.56890177  1
  C  C25  1  0.50000000  0.41519732  0.69373172  1
  C  C26  1  0.50000000  0.41296851  0.81844783  1
  C  C27  1  0.50000000  0.40662535  0.93918787  1
  C  C28  1  0.50000000  0.44293311  0.50995643  1
  C  C29  1  0.50000000  0.44028938  0.63259413  1
  C  C30  1  0.50000000  0.43825207  0.75708318  1
  C  C31  1  0.50000000  0.43589549  0.88265626  1
  C  C32  1  0.50000000  0.49195817  0.01407577  1
  C  C33  1  0.50000000  0.49193421  0.13680985  1
  C  C34  1  0.50000000  0.49174476  0.26089624  1
  C  C35  1  0.50000000  0.49171224  0.38457576  1
  C  C36  1  0.50000000  0.48947085  0.50984448  1
  C  C37  1  0.50000000  0.48807974  0.63439538  1
  C  C38  1  0.50000000  0.48643185  0.75975797  1
  C  C39  1  0.50000000  0.48497235  0.88620199  1
  C  C40  1  0.50000000  0.51537081  0.07541234  1
  C  C41  1  0.50000000  0.51463519  0.19885998  1
  C  C42  1  0.50000000  0.51479013  0.32247811  1
  C  C43  1  0.50000000  0.51378983  0.44630170  1
  C  C44  1  0.50000000  0.51280958  0.57255875  1
  C  C45  1  0.50000000  0.51122998  0.69795754  1
  C  C46  1  0.50000000  0.50957052  0.82395477  1
  C  C47  1  0.50000000  0.51084513  0.94962130  1
  C  C48  1  0.50000000  0.56291251  0.07432635  1
  C  C49  1  0.50000000  0.56288292  0.19870759  1
  C  C50  1  0.50000000  0.56284200  0.32306426  1
  C  C51  1  0.50000000  0.56178343  0.44770371  1
  C  C52  1  0.50000000  0.56061686  0.57309771  1
  C  C53  1  0.50000000  0.55915044  0.69830633  1
  C  C54  1  0.50000000  0.55819405  0.82365967  1
  C  C55  1  0.50000000  0.55951313  0.94855772  1
  C  C56  1  0.50000000  0.58465571  0.01073800  1
  C  C57  1  0.50000000  0.58655935  0.13650418  1
  C  C58  1  0.50000000  0.58654301  0.26086293  1
  C  C59  1  0.50000000  0.58601217  0.38559047  1
  C  C60  1  0.50000000  0.58488155  0.51052878  1
  C  C61  1  0.50000000  0.58362478  0.63597478  1
  C  C62  1  0.50000000  0.58251368  0.76137271  1
  C  C63  1  0.50000000  0.58280467  0.88603609  1
  C  C64  1  0.50000000  0.63260047  0.01067570  1
  C  C65  1  0.50000000  0.63418528  0.13620407  1
  C  C66  1  0.50000000  0.63435513  0.26096830  1
  C  C67  1  0.50000000  0.63389463  0.38590441  1
  C  C68  1  0.50000000  0.63274406  0.51088825  1
  C  C69  1  0.50000000  0.63162424  0.63616196  1
  C  C70  1  0.50000000  0.63075794  0.76128509  1
  C  C71  1  0.50000000  0.63105703  0.88598140  1
  C  C72  1  0.50000000  0.65693274  0.07309798  1
  C  C73  1  0.50000000  0.65800295  0.19856197  1
  C  C74  1  0.50000000  0.65784572  0.32355172  1
  C  C75  1  0.50000000  0.65710216  0.44863172  1
  C  C76  1  0.50000000  0.65589292  0.57383542  1
  C  C77  1  0.50000000  0.65492265  0.69893100  1
  C  C78  1  0.50000000  0.65479197  0.82353233  1
  C  C79  1  0.50000000  0.65567714  0.94804583  1
  C  C80  1  0.50000000  0.70487126  0.07317930  1
  C  C81  1  0.50000000  0.70582478  0.19845480  1
  C  C82  1  0.50000000  0.70576154  0.32359172  1
  C  C83  1  0.50000000  0.70506130  0.44875627  1
  C  C84  1  0.50000000  0.70388351  0.57387795  1
  C  C85  1  0.50000000  0.70300865  0.69883615  1
  C  C86  1  0.50000000  0.70296760  0.82354316  1
  C  C87  1  0.50000000  0.70374812  0.94822806  1
  C  C88  1  0.50000000  0.72794521  0.01043495  1
  C  C89  1  0.50000000  0.72894973  0.13557130  1
  C  C90  1  0.50000000  0.72947931  0.26104206  1
  C  C91  1  0.50000000  0.72908694  0.38637634  1
  C  C92  1  0.50000000  0.72814916  0.51162040  1
  C  C93  1  0.50000000  0.72709446  0.63655689  1
  C  C94  1  0.50000000  0.72668716  0.76120410  1
  C  C95  1  0.50000000  0.72704489  0.88571839  1
  C  C96  1  0.50000000  0.77631280  0.01029191  1
  C  C97  1  0.50000000  0.77731055  0.13545189  1
  C  C98  1  0.50000000  0.77787358  0.26105408  1
  C  C99  1  0.50000000  0.77748393  0.38662708  1
  C  C100  1  0.50000000  0.77653782  0.51188750  1
  C  C101  1  0.50000000  0.77549357  0.63671531  1
  C  C102  1  0.50000000  0.77512244  0.76118792  1
  C  C103  1  0.50000000  0.77544238  0.88559636  1
  C  C104  1  0.50000000  0.79960254  0.07250169  1
  C  C105  1  0.50000000  0.80032537  0.19807232  1
  C  C106  1  0.50000000  0.80042901  0.32396441  1
  C  C107  1  0.50000000  0.79977960  0.44963142  1
  C  C108  1  0.50000000  0.79879845  0.57472282  1
  C  C109  1  0.50000000  0.79815174  0.69910643  1
  C  C110  1  0.50000000  0.79815011  0.82327121  1
  C  C111  1  0.50000000  0.79871565  0.94763281  1
  H  H112  1  0.50000000  0.16342931  0.49946728  1
  H  H113  1  0.50000000  0.16458995  0.61851358  1
  H  H114  1  0.50000000  0.16155747  0.74054211  1
  H  H115  1  0.50000000  0.15805522  0.86508304  1
  H  H116  1  0.50000000  0.83629570  0.07151892  1
  H  H117  1  0.50000000  0.83702511  0.19755426  1
  H  H118  1  0.50000000  0.83715230  0.32432381  1
  H  H119  1  0.50000000  0.83648190  0.45047216  1
  H  H120  1  0.50000000  0.83547239  0.57568523  1
  H  H121  1  0.50000000  0.83483374  0.69956321  1
  H  H122  1  0.50000000  0.83484504  0.82313111  1
  H  H123  1  0.50000000  0.83540827  0.94697565  1
  H  H124  1  0.50000000  0.21528693  0.44686688  1
  H  H125  1  0.50000000  0.19731794  0.97671279  1
  H  H126  1  0.50000000  0.27950927  0.98153491  1
  H  H127  1  0.50000000  0.28344354  0.45112369  1
  H  H128  1  0.50000000  0.36423804  0.45559145  1
  H  H129  1  0.50000000  0.34261842  0.98386114  1
  H  H130  1  0.50000000  0.41784783  0.99057406  1
  H  H131  1  0.50000000  0.42552869  0.46167052  1
  H  H132  1  0.50000000  0.45667810  0.02292691  1
  H  H133  1  0.50000000  0.45523848  0.13649204  1
  H  H134  1  0.50000000  0.45509296  0.26078776  1
  H  H135  1  0.50000000  0.45520207  0.38186040  1
