# generated using pymatgen
data_HC4
_symmetry_space_group_name_H-M   'P 1'
_cell_length_a   10.00000000
_cell_length_b   29.89204000
_cell_length_c   19.78192643
_cell_angle_alpha   90.00000000
_cell_angle_beta   90.00000000
_cell_angle_gamma   90.00000000
_symmetry_Int_Tables_number   1
_chemical_formula_structural   HC4
_chemical_formula_sum   'H26 C104'
_cell_volume   5913.22136114
_cell_formula_units_Z   26
loop_
 _symmetry_equiv_pos_site_id
 _symmetry_equiv_pos_as_xyz
  1  'x, y, z'
loop_
 _atom_site_type_symbol
 _atom_site_label
 _atom_site_symmetry_multiplicity
 _atom_site_fract_x
 _atom_site_fract_y
 _atom_site_fract_z
 _atom_site_occupancy
  C  C0  1  0.50000052  0.18956800  0.52712514  1
  C  C1  1  0.50000025  0.19646123  0.64905130  1
  C  C2  1  0.50000020  0.19975238  0.77290156  1
  C  C3  1  0.50000010  0.20221872  0.89745830  1
  C  C4  1  0.50000025  0.21658144  0.58401755  1
  C  C5  1  0.50000030  0.22107493  0.70951488  1
  C  C6  1  0.50000029  0.22412291  0.83376154  1
  C  C7  1  0.49999968  0.22695730  0.95674257  1
  C  C8  1  0.49999966  0.26582769  0.58146869  1
  C  C9  1  0.50000015  0.26949812  0.70691898  1
  C  C10  1  0.50000023  0.27233909  0.83143879  1
  C  C11  1  0.49999970  0.27382148  0.95458339  1
  C  C12  1  0.49999886  0.28906090  0.51984028  1
  C  C13  1  0.49999941  0.29133669  0.64266271  1
  C  C14  1  0.49999994  0.29475062  0.76736911  1
  C  C15  1  0.50000010  0.29718459  0.89281238  1
  C  C16  1  0.49999643  0.33542048  0.51757274  1
  C  C17  1  0.49999756  0.33932970  0.64039433  1
  C  C18  1  0.49999950  0.34290011  0.76464443  1
  C  C19  1  0.50000003  0.34585501  0.88973148  1
  C  C20  1  0.49999485  0.36152329  0.57696170  1
  C  C21  1  0.49999819  0.36532941  0.70139425  1
  C  C22  1  0.49999988  0.36824713  0.82599461  1
  C  C23  1  0.49999986  0.37205269  0.94873776  1
  C  C24  1  0.49999452  0.40989473  0.57512925  1
  C  C25  1  0.49999726  0.41364182  0.69860803  1
  C  C26  1  0.49999967  0.41619392  0.82296707  1
  C  C27  1  0.50000003  0.41819772  0.94595395  1
  C  C28  1  0.50000947  0.43270506  0.51360815  1
  C  C29  1  0.49999596  0.43644470  0.63480394  1
  C  C30  1  0.49999843  0.43897021  0.75901853  1
  C  C31  1  0.50000003  0.44128083  0.88387673  1
  C  C32  1  0.50002615  0.47857576  0.51026145  1
  C  C33  1  0.49999766  0.48491366  0.63113819  1
  C  C34  1  0.49999803  0.48710329  0.75593326  1
  C  C35  1  0.49999992  0.48969577  0.88077340  1
  C  C36  1  0.50000674  0.50787558  0.56691058  1
  C  C37  1  0.49999744  0.51016987  0.69253327  1
  C  C38  1  0.49999937  0.51222436  0.81713074  1
  C  C39  1  0.49999999  0.51495726  0.93989497  1
  C  C40  1  0.50000019  0.56435891  0.06565708  1
  C  C41  1  0.50000082  0.56440910  0.18913787  1
  C  C42  1  0.49999371  0.56455987  0.31300480  1
  C  C43  1  0.49997494  0.56427497  0.43575074  1
  C  C44  1  0.50000022  0.55694316  0.56355378  1
  C  C45  1  0.49999977  0.55828828  0.69007734  1
  C  C46  1  0.49999961  0.55999687  0.81561930  1
  C  C47  1  0.49999979  0.56152295  0.94027154  1
  C  C48  1  0.49999992  0.58608263  0.00379209  1
  C  C49  1  0.50000075  0.58753499  0.12775721  1
  C  C50  1  0.50000014  0.58735974  0.25108118  1
  C  C51  1  0.49999243  0.58781388  0.37444367  1
  C  C52  1  0.49999467  0.58301351  0.50027665  1
  C  C53  1  0.49999998  0.58142910  0.62586715  1
  C  C54  1  0.49999991  0.58301074  0.75205034  1
  C  C55  1  0.49999972  0.58474153  0.87750277  1
  C  C56  1  0.49999997  0.63422092  0.00248691  1
  C  C57  1  0.50000050  0.63564840  0.12723424  1
  C  C58  1  0.50000165  0.63567031  0.25137337  1
  C  C59  1  0.50000308  0.63541459  0.37566357  1
  C  C60  1  0.50000342  0.63172342  0.50143118  1
  C  C61  1  0.50000030  0.63010080  0.62638621  1
  C  C62  1  0.49999991  0.63091710  0.75180359  1
  C  C63  1  0.49999987  0.63257293  0.87706985  1
  C  C64  1  0.50000010  0.65862633  0.06458099  1
  C  C65  1  0.50000098  0.65945762  0.18937192  1
  C  C66  1  0.50000333  0.65924995  0.31363216  1
  C  C67  1  0.50000299  0.65698004  0.43935146  1
  C  C68  1  0.50000284  0.65477190  0.56411359  1
  C  C69  1  0.49999999  0.65419197  0.68874677  1
  C  C70  1  0.49999990  0.65539638  0.81416831  1
  C  C71  1  0.49999993  0.65704962  0.93956744  1
  C  C72  1  0.50000002  0.70664466  0.06421736  1
  C  C73  1  0.50000071  0.70742953  0.18931528  1
  C  C74  1  0.50000227  0.70703999  0.31414233  1
  C  C75  1  0.50000202  0.70501853  0.43967906  1
  C  C76  1  0.50000192  0.70305741  0.56435072  1
  C  C77  1  0.50000025  0.70244673  0.68899357  1
  C  C78  1  0.49999994  0.70346810  0.81407006  1
  C  C79  1  0.49999998  0.70501049  0.93916370  1
  C  C80  1  0.49999999  0.72950868  0.00125038  1
  C  C81  1  0.50000014  0.73073296  0.12658666  1
  C  C82  1  0.50000092  0.73100340  0.25187027  1
  C  C83  1  0.50000147  0.72951171  0.37747553  1
  C  C84  1  0.50000141  0.72772186  0.50252088  1
  C  C85  1  0.50000059  0.72640253  0.62694621  1
  C  C86  1  0.50000002  0.72646047  0.75132250  1
  C  C87  1  0.49999999  0.72782929  0.87614859  1
  C  C88  1  0.50000006  0.77794839  0.00088722  1
  C  C89  1  0.50000001  0.77919546  0.12648352  1
  C  C90  1  0.50000010  0.77938606  0.25217224  1
  C  C91  1  0.50000030  0.77794584  0.37789335  1
  C  C92  1  0.50000036  0.77614779  0.50291329  1
  C  C93  1  0.50000006  0.77487888  0.62721635  1
  C  C94  1  0.49999999  0.77486287  0.75134580  1
  C  C95  1  0.50000003  0.77623640  0.87586167  1
  C  C96  1  0.50000006  0.80131420  0.06322064  1
  C  C97  1  0.49999990  0.80207694  0.18927373  1
  C  C98  1  0.49999992  0.80136790  0.31559134  1
  C  C99  1  0.49999989  0.79981577  0.44110327  1
  C  C100  1  0.50000002  0.79835498  0.56556376  1
  C  C101  1  0.49999994  0.79770875  0.68931264  1
  C  C102  1  0.49999996  0.79833905  0.81312260  1
  C  C103  1  0.50000010  0.79989386  0.93770828  1
  H  H104  1  0.50000033  0.15310100  0.53308740  1
  H  H105  1  0.50000033  0.15984175  0.65189508  1
  H  H106  1  0.49999998  0.16309468  0.77513667  1
  H  H107  1  0.50000009  0.16555933  0.89905623  1
  H  H108  1  0.50000016  0.83802687  0.06186231  1
  H  H109  1  0.49999982  0.83880375  0.18900065  1
  H  H110  1  0.49999959  0.83806013  0.31683310  1
  H  H111  1  0.49999928  0.83648908  0.44300704  1
  H  H112  1  0.49999976  0.83503267  0.56680727  1
  H  H113  1  0.49999999  0.83438091  0.68949879  1
  H  H114  1  0.49999984  0.83502668  0.81208770  1
  H  H115  1  0.50000021  0.83658446  0.93619729  1
  H  H116  1  0.50000104  0.20257389  0.47547246  1
  H  H117  1  0.49999892  0.21009401  1.00592934  1
  H  H118  1  0.49999903  0.29216967  1.00234946  1
  H  H119  1  0.49999997  0.27065359  0.47201135  1
  H  H120  1  0.49999619  0.35151554  0.46799486  1
  H  H121  1  0.49999946  0.35614933  0.99844093  1
  H  H122  1  0.50000015  0.43644950  0.99379572  1
  H  H123  1  0.50001723  0.41428289  0.46592032  1
  H  H124  1  0.50007096  0.48999070  0.45896727  1
  H  H125  1  0.50000008  0.49746801  0.98804059  1
  H  H126  1  0.50000001  0.52787717  0.06884226  1
  H  H127  1  0.49999991  0.52771926  0.18902750  1
  H  H128  1  0.49999207  0.52787570  0.31298051  1
  H  H129  1  0.49993135  0.52899563  0.42705989  1
