# generated using pymatgen
data_H3C10
_symmetry_space_group_name_H-M   'P 1'
_cell_length_a   10.00000000
_cell_length_b   25.62946000
_cell_length_c   19.77236226
_cell_angle_alpha   90.00000000
_cell_angle_beta   90.00000000
_cell_angle_gamma   90.00000000
_symmetry_Int_Tables_number   1
_chemical_formula_structural   H3C10
_chemical_formula_sum   'H24 C80'
_cell_volume   5067.54967770
_cell_formula_units_Z   8
loop_
 _symmetry_equiv_pos_site_id
 _symmetry_equiv_pos_as_xyz
  1  'x, y, z'
loop_
 _atom_site_type_symbol
 _atom_site_label
 _atom_site_symmetry_multiplicity
 _atom_site_fract_x
 _atom_site_fract_y
 _atom_site_fract_z
 _atom_site_occupancy
  C  C0  1  0.50000000  0.23443196  0.49710036  1
  C  C1  1  0.50000000  0.23470128  0.61982963  1
  C  C2  1  0.50000000  0.23137521  0.74352383  1
  C  C3  1  0.50000000  0.22706754  0.86799479  1
  C  C4  1  0.50000000  0.26201784  0.55734070  1
  C  C5  1  0.50000000  0.26001910  0.68285056  1
  C  C6  1  0.50000000  0.25618767  0.80688667  1
  C  C7  1  0.50000000  0.25243308  0.92990538  1
  C  C8  1  0.50000000  0.31948817  0.56049918  1
  C  C9  1  0.50000000  0.31660325  0.68582018  1
  C  C10  1  0.50000000  0.31235360  0.80985556  1
  C  C11  1  0.50000000  0.30707120  0.93291989  1
  C  C12  1  0.50000000  0.34985387  0.50156068  1
  C  C13  1  0.50000000  0.34578601  0.62423734  1
  C  C14  1  0.50000000  0.34255313  0.74887074  1
  C  C15  1  0.50000000  0.33760460  0.87367338  1
  C  C16  1  0.50000000  0.40391066  0.50420452  1
  C  C17  1  0.50000000  0.40178046  0.62715586  1
  C  C18  1  0.50000000  0.39893837  0.75167078  1
  C  C19  1  0.50000000  0.39423199  0.87553935  1
  C  C20  1  0.50000000  0.43105292  0.56611506  1
  C  C21  1  0.50000000  0.42832424  0.69123741  1
  C  C22  1  0.50000000  0.42515667  0.81576080  1
  C  C23  1  0.50000000  0.42071635  0.93707305  1
  C  C24  1  0.50000000  0.48773416  0.56949670  1
  C  C25  1  0.50000000  0.48451695  0.69460805  1
  C  C26  1  0.50000000  0.48157026  0.81958405  1
  C  C27  1  0.50000000  0.47428123  0.94055070  1
  C  C28  1  0.50000000  0.51752254  0.51073137  1
  C  C29  1  0.50000000  0.51385526  0.63343442  1
  C  C30  1  0.50000000  0.51103051  0.75819378  1
  C  C31  1  0.50000000  0.50816167  0.88395931  1
  C  C32  1  0.50000000  0.57460646  0.01626299  1
  C  C33  1  0.50000000  0.57630858  0.13888313  1
  C  C34  1  0.50000000  0.57680047  0.26251172  1
  C  C35  1  0.50000000  0.57632672  0.38565471  1
  C  C36  1  0.50000000  0.57203791  0.51085564  1
  C  C37  1  0.50000000  0.56959025  0.63540120  1
  C  C38  1  0.50000000  0.56711535  0.76104615  1
  C  C39  1  0.50000000  0.56549671  0.88783356  1
  C  C40  1  0.50000000  0.60287972  0.07712183  1
  C  C41  1  0.50000000  0.60338632  0.20045570  1
  C  C42  1  0.50000000  0.60377166  0.32380976  1
  C  C43  1  0.50000000  0.60123871  0.44772840  1
  C  C44  1  0.50000000  0.59873503  0.57366730  1
  C  C45  1  0.50000000  0.59600882  0.69923240  1
  C  C46  1  0.50000000  0.59389417  0.82558679  1
  C  C47  1  0.50000000  0.59588539  0.95142055  1
  C  C48  1  0.50000000  0.65857104  0.07572452  1
  C  C49  1  0.50000000  0.65996664  0.20012152  1
  C  C50  1  0.50000000  0.66003057  0.32451446  1
  C  C51  1  0.50000000  0.65753637  0.44939510  1
  C  C52  1  0.50000000  0.65468817  0.57466628  1
  C  C53  1  0.50000000  0.65199427  0.69982211  1
  C  C54  1  0.50000000  0.65067833  0.82517364  1
  C  C55  1  0.50000000  0.65292989  0.95003522  1
  C  C56  1  0.50000000  0.68294053  0.01168621  1
  C  C57  1  0.50000000  0.68697641  0.13748773  1
  C  C58  1  0.50000000  0.68779475  0.26227024  1
  C  C59  1  0.50000000  0.68635621  0.38752324  1
  C  C60  1  0.50000000  0.68362767  0.51266342  1
  C  C61  1  0.50000000  0.68073733  0.63782230  1
  C  C62  1  0.50000000  0.67860715  0.76292832  1
  C  C63  1  0.50000000  0.67937547  0.88728091  1
  C  C64  1  0.50000000  0.73950213  0.01095047  1
  C  C65  1  0.50000000  0.74337994  0.13663551  1
  C  C66  1  0.50000000  0.74437366  0.26237532  1
  C  C67  1  0.50000000  0.74295966  0.38826293  1
  C  C68  1  0.50000000  0.74018860  0.51364741  1
  C  C69  1  0.50000000  0.73731673  0.63849328  1
  C  C70  1  0.50000000  0.73521463  0.76289921  1
  C  C71  1  0.50000000  0.73608042  0.88678742  1
  C  C72  1  0.50000000  0.76780641  0.07252967  1
  C  C73  1  0.50000000  0.77050488  0.19916292  1
  C  C74  1  0.50000000  0.77020054  0.32589301  1
  C  C75  1  0.50000000  0.76815149  0.45187560  1
  C  C76  1  0.50000000  0.76534763  0.57709676  1
  C  C77  1  0.50000000  0.76279755  0.70133723  1
  C  C78  1  0.50000000  0.76227613  0.82447907  1
  C  C79  1  0.50000000  0.76448466  0.94773275  1
  H  H80  1  0.50000000  0.19168435  0.49763453  1
  H  H81  1  0.50000000  0.19187358  0.61881395  1
  H  H82  1  0.50000000  0.18861263  0.74138349  1
  H  H83  1  0.50000000  0.18434079  0.86544965  1
  H  H84  1  0.50000000  0.81056917  0.06973816  1
  H  H85  1  0.50000000  0.81330643  0.19837285  1
  H  H86  1  0.50000000  0.81303598  0.32695099  1
  H  H87  1  0.50000000  0.81098157  0.45381168  1
  H  H88  1  0.50000000  0.80814240  0.57908589  1
  H  H89  1  0.50000000  0.80556721  0.70283109  1
  H  H90  1  0.50000000  0.80504131  0.82391227  1
  H  H91  1  0.50000000  0.80726242  0.94557334  1
  H  H92  1  0.50000000  0.25317229  0.44744788  1
  H  H93  1  0.50000000  0.22979340  0.97690999  1
  H  H94  1  0.50000000  0.32557165  0.98272362  1
  H  H95  1  0.50000000  0.33086200  0.45202699  1
  H  H96  1  0.50000000  0.42500107  0.45615503  1
  H  H97  1  0.50000000  0.39923659  0.98478202  1
  H  H98  1  0.50000000  0.48816095  0.99165078  1
  H  H99  1  0.50000000  0.49738938  0.46229501  1
  H  H100  1  0.50000000  0.53345969  0.02597996  1
  H  H101  1  0.50000000  0.53351569  0.13939078  1
  H  H102  1  0.50000000  0.53402624  0.26292583  1
  H  H103  1  0.50000000  0.53379000  0.38201639  1
