# generated using pymatgen
data_H9C68
_symmetry_space_group_name_H-M   'P 1'
_cell_length_a   10.00000000
_cell_length_b   29.89204000
_cell_length_c   19.75827759
_cell_angle_alpha   90.00000000
_cell_angle_beta   90.00000000
_cell_angle_gamma   90.00000000
_symmetry_Int_Tables_number   1
_chemical_formula_structural   H9C68
_chemical_formula_sum   'H18 C136'
_cell_volume   5906.15223982
_cell_formula_units_Z   2
loop_
 _symmetry_equiv_pos_site_id
 _symmetry_equiv_pos_as_xyz
  1  'x, y, z'
loop_
 _atom_site_type_symbol
 _atom_site_label
 _atom_site_symmetry_multiplicity
 _atom_site_fract_x
 _atom_site_fract_y
 _atom_site_fract_z
 _atom_site_occupancy
  C  C0  1  0.50000000  0.18844106  0.51957366  1
  C  C1  1  0.50000000  0.20161832  0.63552845  1
  C  C2  1  0.50000000  0.20217869  0.75812004  1
  C  C3  1  0.50000000  0.20197986  0.88242529  1
  C  C4  1  0.50000000  0.22136634  0.57007976  1
  C  C5  1  0.50000000  0.22527320  0.69598532  1
  C  C6  1  0.50000000  0.22514261  0.81949001  1
  C  C7  1  0.50000000  0.22498118  0.94250805  1
  C  C8  1  0.50000000  0.27482056  0.07015727  1
  C  C9  1  0.50000000  0.27497410  0.19441676  1
  C  C10  1  0.50000000  0.27527900  0.31877238  1
  C  C11  1  0.50000000  0.27539540  0.44240466  1
  C  C12  1  0.50000000  0.27101271  0.56798093  1
  C  C13  1  0.50000000  0.27327088  0.69447408  1
  C  C14  1  0.50000000  0.27320764  0.81942004  1
  C  C15  1  0.50000000  0.27264455  0.94438000  1
  C  C16  1  0.50000000  0.29684702  0.00781348  1
  C  C17  1  0.50000000  0.29790101  0.13238593  1
  C  C18  1  0.50000000  0.29797384  0.25651901  1
  C  C19  1  0.50000000  0.29848577  0.38053026  1
  C  C20  1  0.50000000  0.29628652  0.50572480  1
  C  C21  1  0.50000000  0.29559823  0.63025842  1
  C  C22  1  0.50000000  0.29698263  0.75654278  1
  C  C23  1  0.50000000  0.29678573  0.88210141  1
  C  C24  1  0.50000000  0.34503386  0.00690714  1
  C  C25  1  0.50000000  0.34600408  0.13191949  1
  C  C26  1  0.50000000  0.34621893  0.25654471  1
  C  C27  1  0.50000000  0.34636363  0.38117208  1
  C  C28  1  0.50000000  0.34469861  0.50657140  1
  C  C29  1  0.50000000  0.34395944  0.63104220  1
  C  C30  1  0.50000000  0.34477785  0.75666324  1
  C  C31  1  0.50000000  0.34484498  0.88188972  1
  C  C32  1  0.50000000  0.36920797  0.06928232  1
  C  C33  1  0.50000000  0.36980049  0.19425448  1
  C  C34  1  0.50000000  0.36995859  0.31886791  1
  C  C35  1  0.50000000  0.36913911  0.44419194  1
  C  C36  1  0.50000000  0.36832321  0.56891355  1
  C  C37  1  0.50000000  0.36802301  0.69369551  1
  C  C38  1  0.50000000  0.36854408  0.81932431  1
  C  C39  1  0.50000000  0.36872853  0.94439744  1
  C  C40  1  0.50000000  0.41709650  0.06919905  1
  C  C41  1  0.50000000  0.41755277  0.19422736  1
  C  C42  1  0.50000000  0.41763439  0.31912309  1
  C  C43  1  0.50000000  0.41701268  0.44435384  1
  C  C44  1  0.50000000  0.41637362  0.56916367  1
  C  C45  1  0.50000000  0.41606227  0.69393413  1
  C  C46  1  0.50000000  0.41641534  0.81921897  1
  C  C47  1  0.50000000  0.41662397  0.94428130  1
  C  C48  1  0.50000000  0.44065620  0.00670318  1
  C  C49  1  0.50000000  0.44104547  0.13161673  1
  C  C50  1  0.50000000  0.44131790  0.25666119  1
  C  C51  1  0.50000000  0.44100787  0.38191096  1
  C  C52  1  0.50000000  0.44054426  0.50692323  1
  C  C53  1  0.50000000  0.44011176  0.63167546  1
  C  C54  1  0.50000000  0.44002601  0.75653095  1
  C  C55  1  0.50000000  0.44032897  0.88170451  1
  C  C56  1  0.50000000  0.48843967  0.00672874  1
  C  C57  1  0.50000000  0.48878836  0.13172152  1
  C  C58  1  0.50000000  0.48898792  0.25682166  1
  C  C59  1  0.50000000  0.48876495  0.38196756  1
  C  C60  1  0.50000000  0.48837266  0.50698116  1
  C  C61  1  0.50000000  0.48800779  0.63183832  1
  C  C62  1  0.50000000  0.48791236  0.75670104  1
  C  C63  1  0.50000000  0.48815046  0.88175376  1
  C  C64  1  0.50000000  0.51237891  0.06918273  1
  C  C65  1  0.50000000  0.51261822  0.19427279  1
  C  C66  1  0.50000000  0.51261483  0.31947407  1
  C  C67  1  0.50000000  0.51235834  0.44458359  1
  C  C68  1  0.50000000  0.51204790  0.56950250  1
  C  C69  1  0.50000000  0.51182914  0.69433488  1
  C  C70  1  0.50000000  0.51183875  0.81921333  1
  C  C71  1  0.50000000  0.51208658  0.94419928  1
  C  C72  1  0.50000000  0.56013288  0.06933420  1
  C  C73  1  0.50000000  0.56033940  0.19444427  1
  C  C74  1  0.50000000  0.56034697  0.31957852  1
  C  C75  1  0.50000000  0.56013012  0.44464519  1
  C  C76  1  0.50000000  0.55986469  0.56957687  1
  C  C77  1  0.50000000  0.55967522  0.69444017  1
  C  C78  1  0.50000000  0.55967024  0.81933192  1
  C  C79  1  0.50000000  0.55985944  0.94430991  1
  C  C80  1  0.50000000  0.58377097  0.00680775  1
  C  C81  1  0.50000000  0.58398472  0.13188399  1
  C  C82  1  0.50000000  0.58409264  0.25704268  1
  C  C83  1  0.50000000  0.58399813  0.38219763  1
  C  C84  1  0.50000000  0.58380139  0.50718932  1
  C  C85  1  0.50000000  0.58360768  0.63206574  1
  C  C86  1  0.50000000  0.58350234  0.75690756  1
  C  C87  1  0.50000000  0.58355866  0.88181285  1
  C  C88  1  0.50000000  0.63157993  0.00695445  1
  C  C89  1  0.50000000  0.63177097  0.13202673  1
  C  C90  1  0.50000000  0.63186889  0.25715652  1
  C  C91  1  0.50000000  0.63179156  0.38226001  1
  C  C92  1  0.50000000  0.63162754  0.50722095  1
  C  C93  1  0.50000000  0.63146331  0.63212518  1
  C  C94  1  0.50000000  0.63136831  0.75701796  1
  C  C95  1  0.50000000  0.63140581  0.88194581  1
  C  C96  1  0.50000000  0.65543772  0.06947970  1
  C  C97  1  0.50000000  0.65555875  0.19460445  1
  C  C98  1  0.50000000  0.65556849  0.31975334  1
  C  C99  1  0.50000000  0.65548619  0.44478827  1
  C  C100  1  0.50000000  0.65533512  0.56971673  1
  C  C101  1  0.50000000  0.65521863  0.69461536  1
  C  C102  1  0.50000000  0.65519190  0.81950700  1
  C  C103  1  0.50000000  0.65527174  0.94444436  1
  C  C104  1  0.50000000  0.70336224  0.06958770  1
  C  C105  1  0.50000000  0.70345830  0.19467147  1
  C  C106  1  0.50000000  0.70346864  0.31977475  1
  C  C107  1  0.50000000  0.70340129  0.44479842  1
  C  C108  1  0.50000000  0.70327042  0.56975489  1
  C  C109  1  0.50000000  0.70317121  0.69469094  1
  C  C110  1  0.50000000  0.70315167  0.81961584  1
  C  C111  1  0.50000000  0.70322105  0.94457155  1
  C  C112  1  0.50000000  0.72699777  0.00706603  1
  C  C113  1  0.50000000  0.72710704  0.13212184  1
  C  C114  1  0.50000000  0.72714817  0.25723069  1
  C  C115  1  0.50000000  0.72713658  0.38231052  1
  C  C116  1  0.50000000  0.72705038  0.50732058  1
  C  C117  1  0.50000000  0.72693670  0.63226181  1
  C  C118  1  0.50000000  0.72688669  0.75717540  1
  C  C119  1  0.50000000  0.72690299  0.88210175  1
  C  C120  1  0.50000000  0.77539133  0.00710746  1
  C  C121  1  0.50000000  0.77549798  0.13213747  1
  C  C122  1  0.50000000  0.77553445  0.25721698  1
  C  C123  1  0.50000000  0.77552209  0.38231125  1
  C  C124  1  0.50000000  0.77543912  0.50736622  1
  C  C125  1  0.50000000  0.77533465  0.63233342  1
  C  C126  1  0.50000000  0.77528799  0.75724390  1
  C  C127  1  0.50000000  0.77530601  0.88215721  1
  C  C128  1  0.50000000  0.79826451  0.06958951  1
  C  C129  1  0.50000000  0.79833159  0.19466480  1
  C  C130  1  0.50000000  0.79833978  0.31976600  1
  C  C131  1  0.50000000  0.79829162  0.44487375  1
  C  C132  1  0.50000000  0.79820964  0.56989925  1
  C  C133  1  0.50000000  0.79814495  0.69482073  1
  C  C134  1  0.50000000  0.79812957  0.81970602  1
  C  C135  1  0.50000000  0.79817964  0.94461024  1
  H  H136  1  0.50000000  0.15361413  0.53721162  1
  H  H137  1  0.50000000  0.16500536  0.63811808  1
  H  H138  1  0.50000000  0.16548805  0.75768568  1
  H  H139  1  0.50000000  0.16530486  0.88172604  1
  H  H140  1  0.50000000  0.83496514  0.06949559  1
  H  H141  1  0.50000000  0.83503399  0.19462745  1
  H  H142  1  0.50000000  0.83504147  0.31973470  1
  H  H143  1  0.50000000  0.83498824  0.44491057  1
  H  H144  1  0.50000000  0.83490489  0.56998598  1
  H  H145  1  0.50000000  0.83484331  0.69493353  1
  H  H146  1  0.50000000  0.83482982  0.81976101  1
  H  H147  1  0.50000000  0.83487819  0.94459870  1
  H  H148  1  0.50000000  0.19169070  0.46486294  1
  H  H149  1  0.50000000  0.20592782  0.98973551  1
  H  H150  1  0.50000000  0.23829843  0.07251449  1
  H  H151  1  0.50000000  0.23828880  0.19477864  1
  H  H152  1  0.50000000  0.23858805  0.31873085  1
  H  H153  1  0.50000000  0.23946065  0.43894415  1
