# generated using pymatgen
data_H13C36
_symmetry_space_group_name_H-M   'P 1'
_cell_length_a   10.00000000
_cell_length_b   25.62946000
_cell_length_c   19.92180015
_cell_angle_alpha   90.00000000
_cell_angle_beta   90.00000000
_cell_angle_gamma   90.00000000
_symmetry_Int_Tables_number   1
_chemical_formula_structural   H13C36
_chemical_formula_sum   'H26 C72'
_cell_volume   5105.84980128
_cell_formula_units_Z   2
loop_
 _symmetry_equiv_pos_site_id
 _symmetry_equiv_pos_as_xyz
  1  'x, y, z'
loop_
 _atom_site_type_symbol
 _atom_site_label
 _atom_site_symmetry_multiplicity
 _atom_site_fract_x
 _atom_site_fract_y
 _atom_site_fract_z
 _atom_site_occupancy
  C  C0  1  0.50000000  0.22470616  0.51872055  1
  C  C1  1  0.50000000  0.23120403  0.64010355  1
  C  C2  1  0.50000000  0.23465194  0.76160215  1
  C  C3  1  0.50000000  0.23539612  0.88465911  1
  C  C4  1  0.50000000  0.25507067  0.57623296  1
  C  C5  1  0.50000000  0.26045027  0.69952672  1
  C  C6  1  0.50000000  0.26218290  0.82237023  1
  C  C7  1  0.50000000  0.26316695  0.94428634  1
  C  C8  1  0.50000000  0.31236639  0.57530412  1
  C  C9  1  0.50000000  0.31711696  0.69776768  1
  C  C10  1  0.50000000  0.31838298  0.82095514  1
  C  C11  1  0.50000000  0.31786208  0.94323371  1
  C  C12  1  0.50000000  0.33899426  0.51483291  1
  C  C13  1  0.50000000  0.34340645  0.63458293  1
  C  C14  1  0.50000000  0.34574148  0.75793031  1
  C  C15  1  0.50000000  0.34606531  0.88248530  1
  C  C16  1  0.50000000  0.39268842  0.51198577  1
  C  C17  1  0.50000000  0.39999448  0.63152728  1
  C  C18  1  0.50000000  0.40199642  0.75544310  1
  C  C19  1  0.50000000  0.40286823  0.87998287  1
  C  C20  1  0.50000000  0.42688101  0.56802108  1
  C  C21  1  0.50000000  0.42929024  0.69276784  1
  C  C22  1  0.50000000  0.43008951  0.81702709  1
  C  C23  1  0.50000000  0.43130406  0.93921924  1
  C  C24  1  0.50000000  0.48682720  0.06692487  1
  C  C25  1  0.50000000  0.48705625  0.19124035  1
  C  C26  1  0.50000000  0.48809557  0.31507973  1
  C  C27  1  0.50000000  0.49149482  0.43858105  1
  C  C28  1  0.50000000  0.48464300  0.56528148  1
  C  C29  1  0.50000000  0.48576996  0.69083572  1
  C  C30  1  0.50000000  0.48582403  0.81624517  1
  C  C31  1  0.50000000  0.48568555  0.94100221  1
  C  C32  1  0.50000000  0.51285937  0.00559798  1
  C  C33  1  0.50000000  0.51328619  0.12954902  1
  C  C34  1  0.50000000  0.51421034  0.25293354  1
  C  C35  1  0.50000000  0.51607164  0.37559263  1
  C  C36  1  0.50000000  0.51459591  0.50223464  1
  C  C37  1  0.50000000  0.51356800  0.62680681  1
  C  C38  1  0.50000000  0.51348143  0.75312605  1
  C  C39  1  0.50000000  0.51329991  0.87887703  1
  C  C40  1  0.50000000  0.56928794  0.00548521  1
  C  C41  1  0.50000000  0.56996444  0.12919825  1
  C  C42  1  0.50000000  0.57145992  0.25258772  1
  C  C43  1  0.50000000  0.57178188  0.37549099  1
  C  C44  1  0.50000000  0.57208009  0.50234993  1
  C  C45  1  0.50000000  0.57142157  0.62698694  1
  C  C46  1  0.50000000  0.56972386  0.75347113  1
  C  C47  1  0.50000000  0.56914323  0.87918043  1
  C  C48  1  0.50000000  0.59576147  0.06638488  1
  C  C49  1  0.50000000  0.59732694  0.19011176  1
  C  C50  1  0.50000000  0.59874946  0.31413718  1
  C  C51  1  0.50000000  0.59604243  0.43892788  1
  C  C52  1  0.50000000  0.60124011  0.56574547  1
  C  C53  1  0.50000000  0.59798092  0.69159712  1
  C  C54  1  0.50000000  0.59691172  0.81695528  1
  C  C55  1  0.50000000  0.59661264  0.94134863  1
  C  C56  1  0.50000000  0.65929939  0.56923479  1
  C  C57  1  0.50000000  0.65421743  0.69439962  1
  C  C58  1  0.50000000  0.65262220  0.81858157  1
  C  C59  1  0.50000000  0.65117897  0.94031476  1
  C  C60  1  0.50000000  0.69521175  0.51458331  1
  C  C61  1  0.50000000  0.68413529  0.63386292  1
  C  C62  1  0.50000000  0.68055503  0.75735435  1
  C  C63  1  0.50000000  0.67986211  0.88164594  1
  C  C64  1  0.50000000  0.74964506  0.51982522  1
  C  C65  1  0.50000000  0.74063223  0.63897717  1
  C  C66  1  0.50000000  0.73691569  0.76101695  1
  C  C67  1  0.50000000  0.73728236  0.88481851  1
  C  C68  1  0.50000000  0.77302803  0.58177351  1
  C  C69  1  0.50000000  0.76527792  0.70152521  1
  C  C70  1  0.50000000  0.76339086  0.82249998  1
  C  C71  1  0.50000000  0.76620808  0.94352435  1
  H  H72  1  0.50000000  0.18209643  0.52316379  1
  H  H73  1  0.50000000  0.18850047  0.64329911  1
  H  H74  1  0.50000000  0.19188073  0.76234933  1
  H  H75  1  0.50000000  0.19260667  0.88444482  1
  H  H76  1  0.50000000  0.81543819  0.58843776  1
  H  H77  1  0.50000000  0.80799698  0.70361195  1
  H  H78  1  0.50000000  0.80616749  0.82177838  1
  H  H79  1  0.50000000  0.80889229  0.94024162  1
  H  H80  1  0.50000000  0.24080378  0.46792041  1
  H  H81  1  0.50000000  0.24258624  0.99249198  1
  H  H82  1  0.50000000  0.33817667  0.99148801  1
  H  H83  1  0.50000000  0.31763932  0.46732184  1
  H  H84  1  0.50000000  0.40511978  0.46077220  1
  H  H85  1  0.50000000  0.41011039  0.98654327  1
  H  H86  1  0.50000000  0.44415530  0.06911957  1
  H  H87  1  0.50000000  0.44422655  0.19193083  1
  H  H88  1  0.50000000  0.44526302  0.31607362  1
  H  H89  1  0.50000000  0.45024605  0.43227814  1
  H  H90  1  0.50000000  0.63839243  0.06796150  1
  H  H91  1  0.50000000  0.64014313  0.18927784  1
  H  H92  1  0.50000000  0.64159653  0.31360992  1
  H  H93  1  0.50000000  0.63751954  0.43429173  1
  H  H94  1  0.50000000  0.67236309  0.98766191  1
  H  H95  1  0.50000000  0.68397821  0.46272127  1
  H  H96  1  0.50000000  0.77281804  0.47358953  1
  H  H97  1  0.50000000  0.74926337  0.99387727  1
