# generated using pymatgen
data_H15C44
_symmetry_space_group_name_H-M   'P 1'
_cell_length_a   10.00000000
_cell_length_b   29.89204000
_cell_length_c   19.87098119
_cell_angle_alpha   90.00000000
_cell_angle_beta   90.00000000
_cell_angle_gamma   90.00000000
_symmetry_Int_Tables_number   1
_chemical_formula_structural   H15C44
_chemical_formula_sum   'H30 C88'
_cell_volume   5939.84164689
_cell_formula_units_Z   2
loop_
 _symmetry_equiv_pos_site_id
 _symmetry_equiv_pos_as_xyz
  1  'x, y, z'
loop_
 _atom_site_type_symbol
 _atom_site_label
 _atom_site_symmetry_multiplicity
 _atom_site_fract_x
 _atom_site_fract_y
 _atom_site_fract_z
 _atom_site_occupancy
  C  C0  1  0.50000000  0.18600951  0.52141863  1
  C  C1  1  0.50000000  0.20147140  0.63519107  1
  C  C2  1  0.50000000  0.20277426  0.75571602  1
  C  C3  1  0.50000000  0.20187303  0.87849545  1
  C  C4  1  0.50000000  0.22019851  0.56955487  1
  C  C5  1  0.50000000  0.22596945  0.69409221  1
  C  C6  1  0.50000000  0.22556289  0.81639688  1
  C  C7  1  0.50000000  0.22458384  0.93822242  1
  C  C8  1  0.50000000  0.27172677  0.06516554  1
  C  C9  1  0.50000000  0.26886865  0.18951595  1
  C  C10  1  0.50000000  0.26727160  0.31470981  1
  C  C11  1  0.50000000  0.27065330  0.44104047  1
  C  C12  1  0.50000000  0.27003788  0.56599552  1
  C  C13  1  0.50000000  0.27408664  0.69156865  1
  C  C14  1  0.50000000  0.27370997  0.81608823  1
  C  C15  1  0.50000000  0.27218694  0.94036359  1
  C  C16  1  0.50000000  0.29522282  0.00430165  1
  C  C17  1  0.50000000  0.29292371  0.12859643  1
  C  C18  1  0.50000000  0.29054491  0.25260352  1
  C  C19  1  0.50000000  0.29036982  0.37649324  1
  C  C20  1  0.50000000  0.29383259  0.50279565  1
  C  C21  1  0.50000000  0.29593521  0.62705465  1
  C  C22  1  0.50000000  0.29765077  0.75344003  1
  C  C23  1  0.50000000  0.29670453  0.87861799  1
  C  C24  1  0.50000000  0.34384138  0.00528618  1
  C  C25  1  0.50000000  0.34151455  0.12952357  1
  C  C26  1  0.50000000  0.33951684  0.25294039  1
  C  C27  1  0.50000000  0.33832522  0.37567874  1
  C  C28  1  0.50000000  0.34302996  0.50169595  1
  C  C29  1  0.50000000  0.34512979  0.62660149  1
  C  C30  1  0.50000000  0.34562553  0.75318229  1
  C  C31  1  0.50000000  0.34481249  0.87886045  1
  C  C32  1  0.50000000  0.36512150  0.06740147  1
  C  C33  1  0.50000000  0.36327200  0.19162018  1
  C  C34  1  0.50000000  0.36192028  0.31485324  1
  C  C35  1  0.50000000  0.36140445  0.43716795  1
  C  C36  1  0.50000000  0.36929058  0.56457022  1
  C  C37  1  0.50000000  0.36914382  0.69057187  1
  C  C38  1  0.50000000  0.36895652  0.81639981  1
  C  C39  1  0.50000000  0.36832363  0.94119312  1
  C  C40  1  0.50000000  0.41841214  0.56730847  1
  C  C41  1  0.50000000  0.41736022  0.69230918  1
  C  C42  1  0.50000000  0.41679372  0.81685697  1
  C  C43  1  0.50000000  0.41513686  0.93951895  1
  C  C44  1  0.50000000  0.44684162  0.51024230  1
  C  C45  1  0.50000000  0.44195382  0.63065952  1
  C  C46  1  0.50000000  0.44107707  0.75496915  1
  C  C47  1  0.50000000  0.44000104  0.87989807  1
  C  C48  1  0.50000000  0.49265162  0.51210241  1
  C  C49  1  0.50000000  0.49034456  0.63295113  1
  C  C50  1  0.50000000  0.48929885  0.75659911  1
  C  C51  1  0.50000000  0.48865149  0.88115176  1
  C  C52  1  0.50000000  0.51600034  0.57275519  1
  C  C53  1  0.50000000  0.51393216  0.69571290  1
  C  C54  1  0.50000000  0.51294687  0.81953857  1
  C  C55  1  0.50000000  0.51293823  0.94200098  1
  C  C56  1  0.50000000  0.56419634  0.57293496  1
  C  C57  1  0.50000000  0.56227337  0.69670235  1
  C  C58  1  0.50000000  0.56109003  0.82057215  1
  C  C59  1  0.50000000  0.55920216  0.94295814  1
  C  C60  1  0.50000000  0.58901218  0.51261543  1
  C  C61  1  0.50000000  0.58732091  0.63516752  1
  C  C62  1  0.50000000  0.58570384  0.75876826  1
  C  C63  1  0.50000000  0.58451025  0.88314038  1
  C  C64  1  0.50000000  0.63522931  0.51298614  1
  C  C65  1  0.50000000  0.63525282  0.63551293  1
  C  C66  1  0.50000000  0.63388460  0.75962705  1
  C  C67  1  0.50000000  0.63312790  0.88423093  1
  C  C68  1  0.50000000  0.65954023  0.57357697  1
  C  C69  1  0.50000000  0.65840218  0.69840524  1
  C  C70  1  0.50000000  0.65742208  0.82252758  1
  C  C71  1  0.50000000  0.65750546  0.94492492  1
  C  C72  1  0.50000000  0.70823311  0.57401415  1
  C  C73  1  0.50000000  0.70646190  0.69912185  1
  C  C74  1  0.50000000  0.70548201  0.82342071  1
  C  C75  1  0.50000000  0.70393208  0.94567327  1
  C  C76  1  0.50000000  0.73368476  0.51431627  1
  C  C77  1  0.50000000  0.73092923  0.63701552  1
  C  C78  1  0.50000000  0.72952791  0.76114439  1
  C  C79  1  0.50000000  0.72903015  0.88602442  1
  C  C80  1  0.50000000  0.78060542  0.51572584  1
  C  C81  1  0.50000000  0.77912763  0.63829604  1
  C  C82  1  0.50000000  0.77796708  0.76203235  1
  C  C83  1  0.50000000  0.77833368  0.88699996  1
  C  C84  1  0.50000000  0.80321420  0.57667538  1
  C  C85  1  0.50000000  0.80139878  0.70064496  1
  C  C86  1  0.50000000  0.80062843  0.82387941  1
  C  C87  1  0.50000000  0.80342119  0.94557328  1
  H  H88  1  0.50000000  0.15180501  0.54145453  1
  H  H89  1  0.50000000  0.16494872  0.63965509  1
  H  H90  1  0.50000000  0.16609103  0.75522007  1
  H  H91  1  0.50000000  0.16519548  0.87758231  1
  H  H92  1  0.50000000  0.83988098  0.57820007  1
  H  H93  1  0.50000000  0.83809014  0.70138974  1
  H  H94  1  0.50000000  0.83732265  0.82353864  1
  H  H95  1  0.50000000  0.84002965  0.94246284  1
  H  H96  1  0.50000000  0.18718934  0.46687621  1
  H  H97  1  0.50000000  0.20527442  0.98484530  1
  H  H98  1  0.50000000  0.23516229  0.06520814  1
  H  H99  1  0.50000000  0.23216252  0.18772376  1
  H  H100  1  0.50000000  0.23053781  0.31443308  1
  H  H101  1  0.50000000  0.23467275  0.44181707  1
  H  H102  1  0.50000000  0.40168870  0.07070790  1
  H  H103  1  0.50000000  0.39995650  0.19320746  1
  H  H104  1  0.50000000  0.39864152  0.31559108  1
  H  H105  1  0.50000000  0.39659802  0.42782024  1
  H  H106  1  0.50000000  0.43303439  0.98727412  1
  H  H107  1  0.50000000  0.43480897  0.45960425  1
  H  H108  1  0.50000000  0.51027731  0.46396095  1
  H  H109  1  0.50000000  0.49547118  0.99034523  1
  H  H110  1  0.50000000  0.57597125  0.99185598  1
  H  H111  1  0.50000000  0.57202290  0.46393022  1
  H  H112  1  0.50000000  0.65270556  0.46464384  1
  H  H113  1  0.50000000  0.63999654  0.99322644  1
  H  H114  1  0.50000000  0.72110866  0.99431882  1
  H  H115  1  0.50000000  0.71697294  0.46535995  1
  H  H116  1  0.50000000  0.79927434  0.46820730  1
  H  H117  1  0.50000000  0.78873989  0.99593827  1
