# generated using pymatgen
data_H9C68
_symmetry_space_group_name_H-M   'P 1'
_cell_length_a   10.00000000
_cell_length_b   29.89204000
_cell_length_c   19.75831835
_cell_angle_alpha   90.00000000
_cell_angle_beta   90.00000000
_cell_angle_gamma   90.00000000
_symmetry_Int_Tables_number   1
_chemical_formula_structural   H9C68
_chemical_formula_sum   'H18 C136'
_cell_volume   5906.16442586
_cell_formula_units_Z   2
loop_
 _symmetry_equiv_pos_site_id
 _symmetry_equiv_pos_as_xyz
  1  'x, y, z'
loop_
 _atom_site_type_symbol
 _atom_site_label
 _atom_site_symmetry_multiplicity
 _atom_site_fract_x
 _atom_site_fract_y
 _atom_site_fract_z
 _atom_site_occupancy
  C  C0  1  0.50000000  0.20171166  0.00717339  1
  C  C1  1  0.50000000  0.20165744  0.13228296  1
  C  C2  1  0.50000000  0.20167067  0.25738940  1
  C  C3  1  0.50000000  0.20173693  0.38245473  1
  C  C4  1  0.50000000  0.20181795  0.50744204  1
  C  C5  1  0.50000000  0.20187403  0.63234399  1
  C  C6  1  0.50000000  0.20185422  0.75722536  1
  C  C7  1  0.50000000  0.20179107  0.88215666  1
  C  C8  1  0.50000000  0.22447706  0.06973882  1
  C  C9  1  0.50000000  0.22446319  0.19483257  1
  C  C10  1  0.50000000  0.22450802  0.31991203  1
  C  C11  1  0.50000000  0.22460516  0.44494208  1
  C  C12  1  0.50000000  0.22469561  0.56989220  1
  C  C13  1  0.50000000  0.22471520  0.69480542  1
  C  C14  1  0.50000000  0.22466139  0.81971740  1
  C  C15  1  0.50000000  0.22456638  0.94468418  1
  C  C16  1  0.50000000  0.27286272  0.06973983  1
  C  C17  1  0.50000000  0.27284953  0.19481853  1
  C  C18  1  0.50000000  0.27289754  0.31992828  1
  C  C19  1  0.50000000  0.27299969  0.44498309  1
  C  C20  1  0.50000000  0.27309809  0.56994775  1
  C  C21  1  0.50000000  0.27311529  0.69487524  1
  C  C22  1  0.50000000  0.27306005  0.81978888  1
  C  C23  1  0.50000000  0.27295340  0.94472887  1
  C  C24  1  0.50000000  0.29660048  0.00725297  1
  C  C25  1  0.50000000  0.29652987  0.13227580  1
  C  C26  1  0.50000000  0.29654240  0.25737596  1
  C  C27  1  0.50000000  0.29663993  0.38246435  1
  C  C28  1  0.50000000  0.29677696  0.50747626  1
  C  C29  1  0.50000000  0.29684998  0.63243370  1
  C  C30  1  0.50000000  0.29682767  0.75736188  1
  C  C31  1  0.50000000  0.29673002  0.88229265  1
  C  C32  1  0.50000000  0.34451422  0.00726259  1
  C  C33  1  0.50000000  0.34443071  0.13229686  1
  C  C34  1  0.50000000  0.34444122  0.25744400  1
  C  C35  1  0.50000000  0.34456374  0.38257082  1
  C  C36  1  0.50000000  0.34472667  0.50760423  1
  C  C37  1  0.50000000  0.34480841  0.63254178  1
  C  C38  1  0.50000000  0.34477987  0.75743572  1
  C  C39  1  0.50000000  0.34466489  0.88233171  1
  C  C40  1  0.50000000  0.36820871  0.06979042  1
  C  C41  1  0.50000000  0.36813177  0.19489313  1
  C  C42  1  0.50000000  0.36822921  0.32002189  1
  C  C43  1  0.50000000  0.36841960  0.44509608  1
  C  C44  1  0.50000000  0.36859330  0.57010255  1
  C  C45  1  0.50000000  0.36863029  0.69503227  1
  C  C46  1  0.50000000  0.36853736  0.81992416  1
  C  C47  1  0.50000000  0.36837235  0.94482896  1
  C  C48  1  0.50000000  0.41600301  0.06985410  1
  C  C49  1  0.50000000  0.41590915  0.19500662  1
  C  C50  1  0.50000000  0.41601566  0.32016418  1
  C  C51  1  0.50000000  0.41622800  0.44524219  1
  C  C52  1  0.50000000  0.41644003  0.57023501  1
  C  C53  1  0.50000000  0.41649614  0.69514289  1
  C  C54  1  0.50000000  0.41639288  0.81998366  1
  C  C55  1  0.50000000  0.41619932  0.94486072  1
  C  C56  1  0.50000000  0.43987097  0.00740521  1
  C  C57  1  0.50000000  0.43965563  0.13247151  1
  C  C58  1  0.50000000  0.43966228  0.25760504  1
  C  C59  1  0.50000000  0.43986620  0.38271547  1
  C  C60  1  0.50000000  0.44013954  0.50773930  1
  C  C61  1  0.50000000  0.44032766  0.63271701  1
  C  C62  1  0.50000000  0.44032415  0.75760967  1
  C  C63  1  0.50000000  0.44013613  0.88247276  1
  C  C64  1  0.50000000  0.48764370  0.00746660  1
  C  C65  1  0.50000000  0.48738782  0.13257588  1
  C  C66  1  0.50000000  0.48738350  0.25777756  1
  C  C67  1  0.50000000  0.48762056  0.38286612  1
  C  C68  1  0.50000000  0.48791181  0.50784953  1
  C  C69  1  0.50000000  0.48815906  0.63283627  1
  C  C70  1  0.50000000  0.48816992  0.75771551  1
  C  C71  1  0.50000000  0.48795296  0.88254884  1
  C  C72  1  0.50000000  0.51123688  0.07008230  1
  C  C73  1  0.50000000  0.51101385  0.19522891  1
  C  C74  1  0.50000000  0.51121245  0.32032829  1
  C  C75  1  0.50000000  0.51155948  0.44532054  1
  C  C76  1  0.50000000  0.51184755  0.57029631  1
  C  C77  1  0.50000000  0.51208612  0.69534849  1
  C  C78  1  0.50000000  0.51199242  0.82021146  1
  C  C79  1  0.50000000  0.51162949  0.94506974  1
  C  C80  1  0.50000000  0.55899437  0.07013778  1
  C  C81  1  0.50000000  0.55868372  0.19539225  1
  C  C82  1  0.50000000  0.55895511  0.32043416  1
  C  C83  1  0.50000000  0.55934245  0.44534679  1
  C  C84  1  0.50000000  0.55966845  0.57034815  1
  C  C85  1  0.50000000  0.55997254  0.69552156  1
  C  C86  1  0.50000000  0.55988693  0.82037629  1
  C  C87  1  0.50000000  0.55945708  0.94512885  1
  C  C88  1  0.50000000  0.58298934  0.00769958  1
  C  C89  1  0.50000000  0.58236691  0.13293075  1
  C  C90  1  0.50000000  0.58244906  0.25782498  1
  C  C91  1  0.50000000  0.58290330  0.38285259  1
  C  C92  1  0.50000000  0.58337282  0.50777061  1
  C  C93  1  0.50000000  0.58358355  0.63283429  1
  C  C94  1  0.50000000  0.58393822  0.75811868  1
  C  C95  1  0.50000000  0.58362799  0.88288536  1
  C  C96  1  0.50000000  0.63086035  0.00786466  1
  C  C97  1  0.50000000  0.63004076  0.13319181  1
  C  C98  1  0.50000000  0.63020095  0.25780324  1
  C  C99  1  0.50000000  0.63079237  0.38277358  1
  C  C100  1  0.50000000  0.63126763  0.50765729  1
  C  C101  1  0.50000000  0.63145420  0.63273192  1
  C  C102  1  0.50000000  0.63197608  0.75835773  1
  C  C103  1  0.50000000  0.63167739  0.88313888  1
  C  C104  1  0.50000000  0.65363459  0.07088741  1
  C  C105  1  0.50000000  0.65378411  0.19551350  1
  C  C106  1  0.50000000  0.65399770  0.32013846  1
  C  C107  1  0.50000000  0.65496413  0.44515085  1
  C  C108  1  0.50000000  0.65515132  0.57016654  1
  C  C109  1  0.50000000  0.65522077  0.69539548  1
  C  C110  1  0.50000000  0.65604190  0.82101243  1
  C  C111  1  0.50000000  0.65530229  0.94548352  1
  C  C112  1  0.50000000  0.70151283  0.07153244  1
  C  C113  1  0.50000000  0.70202867  0.19554289  1
  C  C114  1  0.50000000  0.70210247  0.31967584  1
  C  C115  1  0.50000000  0.70315076  0.44425030  1
  C  C116  1  0.50000000  0.70321007  0.56995706  1
  C  C117  1  0.50000000  0.70301667  0.69552049  1
  C  C118  1  0.50000000  0.70440205  0.82179645  1
  C  C119  1  0.50000000  0.70371509  0.94633810  1
  C  C120  1  0.50000000  0.72460194  0.00965547  1
  C  C121  1  0.50000000  0.72472184  0.13328864  1
  C  C122  1  0.50000000  0.72502973  0.25764421  1
  C  C123  1  0.50000000  0.72517905  0.38190813  1
  C  C124  1  0.50000000  0.72735322  0.50768364  1
  C  C125  1  0.50000000  0.72678458  0.63264092  1
  C  C126  1  0.50000000  0.72673155  0.75758518  1
  C  C127  1  0.50000000  0.72898561  0.88407960  1
  C  C128  1  0.50000000  0.77501603  0.50956051  1
  C  C129  1  0.50000000  0.77484781  0.63257470  1
  C  C130  1  0.50000000  0.77473128  0.75607447  1
  C  C131  1  0.50000000  0.77863520  0.88198060  1
  C  C132  1  0.50000000  0.79801344  0.56964480  1
  C  C133  1  0.50000000  0.79781856  0.69393512  1
  C  C134  1  0.50000000  0.79838451  0.81653585  1
  C  C135  1  0.50000000  0.81155802  0.93248879  1
  H  H136  1  0.50000000  0.16501587  0.00711830  1
  H  H137  1  0.50000000  0.16495532  0.13231035  1
  H  H138  1  0.50000000  0.16496858  0.25745094  1
  H  H139  1  0.50000000  0.16503669  0.38252186  1
  H  H140  1  0.50000000  0.16511875  0.50746746  1
  H  H141  1  0.50000000  0.16517455  0.63229586  1
  H  H142  1  0.50000000  0.16515512  0.75708676  1
  H  H143  1  0.50000000  0.16509563  0.88209861  1
  H  H144  1  0.50000000  0.83468817  0.57035426  1
  H  H145  1  0.50000000  0.83450909  0.69433684  1
  H  H146  1  0.50000000  0.83499776  0.81396664  1
  H  H147  1  0.50000000  0.84638342  0.91485705  1
  H  H148  1  0.50000000  0.76053905  0.01313279  1
  H  H149  1  0.50000000  0.76141268  0.13332666  1
  H  H150  1  0.50000000  0.76171548  0.25728022  1
  H  H151  1  0.50000000  0.76170158  0.37956700  1
  H  H152  1  0.50000000  0.79407824  0.46234200  1
  H  H153  1  0.50000000  0.80831016  0.98719416  1
