# generated using pymatgen
data_H15C44
_symmetry_space_group_name_H-M   'P 1'
_cell_length_a   10.00000000
_cell_length_b   29.89204000
_cell_length_c   19.87924886
_cell_angle_alpha   90.00000000
_cell_angle_beta   90.00000000
_cell_angle_gamma   90.00000000
_symmetry_Int_Tables_number   1
_chemical_formula_structural   H15C44
_chemical_formula_sum   'H30 C88'
_cell_volume   5942.31302225
_cell_formula_units_Z   2
loop_
 _symmetry_equiv_pos_site_id
 _symmetry_equiv_pos_as_xyz
  1  'x, y, z'
loop_
 _atom_site_type_symbol
 _atom_site_label
 _atom_site_symmetry_multiplicity
 _atom_site_fract_x
 _atom_site_fract_y
 _atom_site_fract_z
 _atom_site_occupancy
  C  C0  1  0.50000022  0.19618439  0.50736630  1
  C  C1  1  0.49999934  0.19932358  0.62885832  1
  C  C2  1  0.49999996  0.19870523  0.75202624  1
  C  C3  1  0.50000025  0.19706491  0.87592951  1
  C  C4  1  0.49999965  0.22150065  0.56566329  1
  C  C5  1  0.49999960  0.22205757  0.69060706  1
  C  C6  1  0.50000028  0.22103634  0.81426519  1
  C  C7  1  0.50000029  0.21976374  0.93671815  1
  C  C8  1  0.49999952  0.27080113  0.56648589  1
  C  C9  1  0.49999985  0.27048884  0.69131034  1
  C  C10  1  0.50000049  0.26921474  0.81534232  1
  C  C11  1  0.50000043  0.26664759  0.93795587  1
  C  C12  1  0.49999945  0.29584793  0.50681527  1
  C  C13  1  0.49999958  0.29445072  0.62897377  1
  C  C14  1  0.50000040  0.29362525  0.75322275  1
  C  C15  1  0.50000056  0.29199057  0.87821807  1
  C  C16  1  0.49999953  0.34227466  0.50747251  1
  C  C17  1  0.49999958  0.34254269  0.62973059  1
  C  C18  1  0.50000051  0.34170031  0.75380411  1
  C  C19  1  0.50000062  0.34068945  0.87855932  1
  C  C20  1  0.49999957  0.36675175  0.56799861  1
  C  C21  1  0.49999993  0.36615879  0.69252085  1
  C  C22  1  0.50000080  0.36493095  0.81660569  1
  C  C23  1  0.50000025  0.36502665  0.93907990  1
  C  C24  1  0.49999978  0.41538619  0.56899145  1
  C  C25  1  0.49999989  0.41433688  0.69328460  1
  C  C26  1  0.50000077  0.41285826  0.81681104  1
  C  C27  1  0.50000025  0.41121852  0.93929224  1
  C  C28  1  0.50000041  0.44066071  0.50922126  1
  C  C29  1  0.49999978  0.43889172  0.63145337  1
  C  C30  1  0.50000036  0.43788009  0.75528724  1
  C  C31  1  0.50000065  0.43598732  0.87898828  1
  C  C32  1  0.50000076  0.48688901  0.51019113  1
  C  C33  1  0.50000008  0.48702486  0.63247061  1
  C  C34  1  0.50000030  0.48621350  0.75627836  1
  C  C35  1  0.50000035  0.48416973  0.87915947  1
  C  C36  1  0.50000040  0.51124563  0.57089497  1
  C  C37  1  0.50000015  0.51076231  0.69534525  1
  C  C38  1  0.50000029  0.50987003  0.81901517  1
  C  C39  1  0.49999818  0.50756912  0.93971631  1
  C  C40  1  0.50000041  0.55988692  0.57203353  1
  C  C41  1  0.50000029  0.55897162  0.69691317  1
  C  C42  1  0.50000010  0.55829236  0.82125420  1
  C  C43  1  0.49999581  0.55336384  0.94158963  1
  C  C44  1  0.50000029  0.58469018  0.51245944  1
  C  C45  1  0.50000030  0.58314287  0.63501550  1
  C  C46  1  0.50000027  0.58279592  0.75953688  1
  C  C47  1  0.49999876  0.58183366  0.88458895  1
  C  C48  1  0.50000324  0.63869288  0.01467173  1
  C  C49  1  0.50000092  0.63797580  0.13700748  1
  C  C50  1  0.49999992  0.63648350  0.26022931  1
  C  C51  1  0.49999991  0.63461710  0.38449775  1
  C  C52  1  0.50000013  0.63148957  0.51073307  1
  C  C53  1  0.50000017  0.63097444  0.63547636  1
  C  C54  1  0.50000001  0.63101823  0.76125888  1
  C  C55  1  0.49999989  0.63092610  0.88733393  1
  C  C56  1  0.50000103  0.66163993  0.07624931  1
  C  C57  1  0.50000009  0.66030800  0.19898208  1
  C  C58  1  0.49999988  0.65820718  0.32236764  1
  C  C59  1  0.49999996  0.65588327  0.44660707  1
  C  C60  1  0.50000010  0.65503611  0.57300856  1
  C  C61  1  0.50000004  0.65444010  0.69862299  1
  C  C62  1  0.50000000  0.65504727  0.82527283  1
  C  C63  1  0.50000069  0.65714825  0.95021324  1
  C  C64  1  0.49999969  0.70959058  0.07552880  1
  C  C65  1  0.49999992  0.70930463  0.19936700  1
  C  C66  1  0.49999994  0.70679870  0.32330347  1
  C  C67  1  0.49999992  0.70446872  0.44754636  1
  C  C68  1  0.50000000  0.70315736  0.57320058  1
  C  C69  1  0.50000001  0.70243965  0.69839802  1
  C  C70  1  0.49999999  0.70422145  0.82481880  1
  C  C71  1  0.49999961  0.70630937  0.94916054  1
  C  C72  1  0.49999968  0.72936805  0.01098703  1
  C  C73  1  0.49999965  0.73266809  0.13732737  1
  C  C74  1  0.49999995  0.73093152  0.26247277  1
  C  C75  1  0.49999989  0.72797705  0.38672523  1
  C  C76  1  0.49999998  0.72758352  0.51141565  1
  C  C77  1  0.50000002  0.72627517  0.63567075  1
  C  C78  1  0.49999997  0.72606337  0.76025923  1
  C  C79  1  0.49999966  0.73011219  0.88592241  1
  C  C80  1  0.50000017  0.77519369  0.51341377  1
  C  C81  1  0.50000002  0.77439937  0.63524934  1
  C  C82  1  0.49999982  0.77422087  0.75762726  1
  C  C83  1  0.49999967  0.77995942  0.88218784  1
  C  C84  1  0.50000023  0.79797866  0.57304986  1
  C  C85  1  0.49999980  0.79727600  0.69586350  1
  C  C86  1  0.49999977  0.79874058  0.81653264  1
  C  C87  1  0.49999974  0.81409283  0.93039849  1
  H  H88  1  0.50000021  0.15962053  0.51127262  1
  H  H89  1  0.49999923  0.16263227  0.62931746  1
  H  H90  1  0.49999989  0.16202896  0.75133409  1
  H  H91  1  0.50000015  0.16041966  0.87444977  1
  H  H92  1  0.50000061  0.83465249  0.57376394  1
  H  H93  1  0.49999954  0.83395677  0.69602289  1
  H  H94  1  0.49999976  0.83530384  0.81224220  1
  H  H95  1  0.49999981  0.84832771  0.91049549  1
  H  H96  1  0.50000088  0.21051168  0.45679798  1
  H  H97  1  0.49999979  0.20118816  0.98424864  1
  H  H98  1  0.50000040  0.28336097  0.98683958  1
  H  H99  1  0.49999949  0.27873941  0.45817188  1
  H  H100  1  0.49999965  0.35978271  0.45921082  1
  H  H101  1  0.49999992  0.34753968  0.98736247  1
  H  H102  1  0.49999983  0.42833212  0.98777524  1
  H  H103  1  0.50000071  0.42388266  0.46039257  1
  H  H104  1  0.50000142  0.50429584  0.46190009  1
  H  H105  1  0.49999707  0.49014174  0.98795729  1
  H  H106  1  0.49998950  0.56517388  0.99230918  1
  H  H107  1  0.50000016  0.56667990  0.46486346  1
  H  H108  1  0.50000925  0.60349082  0.02368285  1
  H  H109  1  0.50000105  0.60125047  0.13619847  1
  H  H110  1  0.50000001  0.59978995  0.25845702  1
  H  H111  1  0.49999989  0.59806638  0.38126069  1
  H  H112  1  0.49999994  0.76533679  0.01027813  1
  H  H113  1  0.49999956  0.76939570  0.13772047  1
  H  H114  1  0.49999996  0.76764506  0.26442537  1
  H  H115  1  0.49999987  0.76454198  0.38664808  1
  H  H116  1  0.50000029  0.79422668  0.46653238  1
  H  H117  1  0.49999980  0.81292613  0.98495565  1
