# generated using pymatgen
data_H11C68
_symmetry_space_group_name_H-M   'P 1'
_cell_length_a   10.00000000
_cell_length_b   29.89204000
_cell_length_c   19.78780093
_cell_angle_alpha   90.00000000
_cell_angle_beta   90.00000000
_cell_angle_gamma   90.00000000
_symmetry_Int_Tables_number   1
_chemical_formula_structural   H11C68
_chemical_formula_sum   'H22 C136'
_cell_volume   5914.97736920
_cell_formula_units_Z   2
loop_
 _symmetry_equiv_pos_site_id
 _symmetry_equiv_pos_as_xyz
  1  'x, y, z'
loop_
 _atom_site_type_symbol
 _atom_site_label
 _atom_site_symmetry_multiplicity
 _atom_site_fract_x
 _atom_site_fract_y
 _atom_site_fract_z
 _atom_site_occupancy
  C  C0  1  0.50000000  0.83685737  0.50473444  1
  C  C1  1  0.50000000  0.83453532  0.62667395  1
  C  C2  1  0.50000000  0.83598582  0.74897495  1
  C  C3  1  0.50000000  0.84178766  0.87023065  1
  C  C4  1  0.50000000  0.15192688  0.52161992  1
  C  C5  1  0.50000000  0.16518931  0.63746609  1
  C  C6  1  0.50000000  0.16610411  0.75976594  1
  C  C7  1  0.50000000  0.16600779  0.88373480  1
  C  C8  1  0.50000000  0.18478611  0.57198868  1
  C  C9  1  0.50000000  0.18906072  0.69763344  1
  C  C10  1  0.50000000  0.18916911  0.82087558  1
  C  C11  1  0.50000000  0.18908890  0.94353859  1
  C  C12  1  0.50000000  0.23845202  0.07064464  1
  C  C13  1  0.50000000  0.23806499  0.19501975  1
  C  C14  1  0.50000000  0.23836465  0.31983936  1
  C  C15  1  0.50000000  0.23866928  0.44362442  1
  C  C16  1  0.50000000  0.23446076  0.56934422  1
  C  C17  1  0.50000000  0.23708932  0.69572624  1
  C  C18  1  0.50000000  0.23723476  0.82046425  1
  C  C19  1  0.50000000  0.23669250  0.94511122  1
  C  C20  1  0.50000000  0.26072511  0.00852511  1
  C  C21  1  0.50000000  0.26120039  0.13307246  1
  C  C22  1  0.50000000  0.26089183  0.25735078  1
  C  C23  1  0.50000000  0.26163825  0.38162069  1
  C  C24  1  0.50000000  0.25957582  0.50694468  1
  C  C25  1  0.50000000  0.25925753  0.63145637  1
  C  C26  1  0.50000000  0.26094436  0.75760605  1
  C  C27  1  0.50000000  0.26084366  0.88291736  1
  C  C28  1  0.50000000  0.30886404  0.00761591  1
  C  C29  1  0.50000000  0.30930964  0.13264642  1
  C  C30  1  0.50000000  0.30921417  0.25744734  1
  C  C31  1  0.50000000  0.30950828  0.38229787  1
  C  C32  1  0.50000000  0.30804152  0.50782469  1
  C  C33  1  0.50000000  0.30768718  0.63215301  1
  C  C34  1  0.50000000  0.30878349  0.75757525  1
  C  C35  1  0.50000000  0.30887939  0.88261179  1
  C  C36  1  0.50000000  0.33272101  0.07006195  1
  C  C37  1  0.50000000  0.33287078  0.19513894  1
  C  C38  1  0.50000000  0.33296352  0.31986254  1
  C  C39  1  0.50000000  0.33231582  0.44538136  1
  C  C40  1  0.50000000  0.33195388  0.57004685  1
  C  C41  1  0.50000000  0.33199407  0.69465365  1
  C  C42  1  0.50000000  0.33260511  0.82009103  1
  C  C43  1  0.50000000  0.33262666  0.94509849  1
  C  C44  1  0.50000000  0.38057884  0.06983159  1
  C  C45  1  0.50000000  0.38062345  0.19504918  1
  C  C46  1  0.50000000  0.38063076  0.32016755  1
  C  C47  1  0.50000000  0.38024448  0.44554320  1
  C  C48  1  0.50000000  0.38007787  0.57032864  1
  C  C49  1  0.50000000  0.38010563  0.69492054  1
  C  C50  1  0.50000000  0.38051764  0.81994730  1
  C  C51  1  0.50000000  0.38051309  0.94485434  1
  C  C52  1  0.50000000  0.40431685  0.00731058  1
  C  C53  1  0.50000000  0.40420713  0.13238771  1
  C  C54  1  0.50000000  0.40420531  0.25763718  1
  C  C55  1  0.50000000  0.40405242  0.38300278  1
  C  C56  1  0.50000000  0.40405017  0.50801932  1
  C  C57  1  0.50000000  0.40413110  0.63270844  1
  C  C58  1  0.50000000  0.40420612  0.75736550  1
  C  C59  1  0.50000000  0.40439591  0.88237097  1
  C  C60  1  0.50000000  0.45211768  0.00720005  1
  C  C61  1  0.50000000  0.45189411  0.13237316  1
  C  C62  1  0.50000000  0.45181102  0.25778831  1
  C  C63  1  0.50000000  0.45181718  0.38310096  1
  C  C64  1  0.50000000  0.45193067  0.50817005  1
  C  C65  1  0.50000000  0.45216631  0.63301391  1
  C  C66  1  0.50000000  0.45226965  0.75762382  1
  C  C67  1  0.50000000  0.45231805  0.88234294  1
  C  C68  1  0.50000000  0.47565406  0.06978999  1
  C  C69  1  0.50000000  0.47531336  0.19517211  1
  C  C70  1  0.50000000  0.47539817  0.32047870  1
  C  C71  1  0.50000000  0.47561983  0.44562312  1
  C  C72  1  0.50000000  0.47596586  0.57059308  1
  C  C73  1  0.50000000  0.47631331  0.69540188  1
  C  C74  1  0.50000000  0.47634840  0.82001141  1
  C  C75  1  0.50000000  0.47610338  0.94476521  1
  C  C76  1  0.50000000  0.52338151  0.06984032  1
  C  C77  1  0.50000000  0.52287799  0.19533500  1
  C  C78  1  0.50000000  0.52307514  0.32049980  1
  C  C79  1  0.50000000  0.52340387  0.44562810  1
  C  C80  1  0.50000000  0.52390669  0.57071798  1
  C  C81  1  0.50000000  0.52437688  0.69560391  1
  C  C82  1  0.50000000  0.52447278  0.82017910  1
  C  C83  1  0.50000000  0.52403074  0.94474517  1
  C  C84  1  0.50000000  0.54742066  0.00733570  1
  C  C85  1  0.50000000  0.54645591  0.13288901  1
  C  C86  1  0.50000000  0.54652144  0.25782561  1
  C  C87  1  0.50000000  0.54684670  0.38300149  1
  C  C88  1  0.50000000  0.54745603  0.50804993  1
  C  C89  1  0.50000000  0.54806755  0.63308372  1
  C  C90  1  0.50000000  0.54863311  0.75799137  1
  C  C91  1  0.50000000  0.54839659  0.88262239  1
  C  C92  1  0.50000000  0.59529621  0.00758113  1
  C  C93  1  0.50000000  0.59400145  0.13328201  1
  C  C94  1  0.50000000  0.59421743  0.25775890  1
  C  C95  1  0.50000000  0.59463855  0.38271773  1
  C  C96  1  0.50000000  0.59527212  0.50779485  1
  C  C97  1  0.50000000  0.59604530  0.63306586  1
  C  C98  1  0.50000000  0.59693020  0.75840500  1
  C  C99  1  0.50000000  0.59655689  0.88295496  1
  C  C100  1  0.50000000  0.61740097  0.07103397  1
  C  C101  1  0.50000000  0.61782208  0.19556685  1
  C  C102  1  0.50000000  0.61784209  0.32014004  1
  C  C103  1  0.50000000  0.61868181  0.44504443  1
  C  C104  1  0.50000000  0.61934667  0.57030532  1
  C  C105  1  0.50000000  0.62036292  0.69547355  1
  C  C106  1  0.50000000  0.62123509  0.82088924  1
  C  C107  1  0.50000000  0.62014139  0.94532036  1
  C  C108  1  0.50000000  0.66496330  0.07208913  1
  C  C109  1  0.50000000  0.66609073  0.19580140  1
  C  C110  1  0.50000000  0.66585406  0.31964756  1
  C  C111  1  0.50000000  0.66667992  0.44379495  1
  C  C112  1  0.50000000  0.66722300  0.56980093  1
  C  C113  1  0.50000000  0.66835041  0.69531168  1
  C  C114  1  0.50000000  0.66991176  0.82161209  1
  C  C115  1  0.50000000  0.66876538  0.94644666  1
  C  C116  1  0.50000000  0.68807952  0.01063108  1
  C  C117  1  0.50000000  0.68856355  0.13349282  1
  C  C118  1  0.50000000  0.68897490  0.25795125  1
  C  C119  1  0.50000000  0.68878530  0.38189518  1
  C  C120  1  0.50000000  0.69088869  0.50734308  1
  C  C121  1  0.50000000  0.69166003  0.63178226  1
  C  C122  1  0.50000000  0.69280053  0.75734536  1
  C  C123  1  0.50000000  0.69473729  0.88384561  1
  C  C124  1  0.50000000  0.73774964  0.50784297  1
  C  C125  1  0.50000000  0.73945056  0.63019404  1
  C  C126  1  0.50000000  0.74087120  0.75505438  1
  C  C127  1  0.50000000  0.74435690  0.88124777  1
  C  C128  1  0.50000000  0.76272389  0.56670203  1
  C  C129  1  0.50000000  0.76356387  0.69183995  1
  C  C130  1  0.50000000  0.76614932  0.81645249  1
  C  C131  1  0.50000000  0.77456598  0.93704300  1
  C  C132  1  0.50000000  0.81205876  0.56385036  1
  C  C133  1  0.50000000  0.81189552  0.68869097  1
  C  C134  1  0.50000000  0.81457843  0.81190179  1
  C  C135  1  0.50000000  0.82125399  0.93232753  1
  H  H136  1  0.50000000  0.87347797  0.50783507  1
  H  H137  1  0.50000000  0.87123469  0.62720065  1
  H  H138  1  0.50000000  0.87265867  0.74729034  1
  H  H139  1  0.50000000  0.87824559  0.86482708  1
  H  H140  1  0.50000000  0.11705629  0.53889466  1
  H  H141  1  0.50000000  0.12857685  0.64054537  1
  H  H142  1  0.50000000  0.12941941  0.75990013  1
  H  H143  1  0.50000000  0.12934715  0.88333217  1
  H  H144  1  0.50000000  0.82222646  0.45410329  1
  H  H145  1  0.50000000  0.15547768  0.46711241  1
  H  H146  1  0.50000000  0.17020797  0.99083588  1
  H  H147  1  0.50000000  0.20191805  0.07262967  1
  H  H148  1  0.50000000  0.20134374  0.19484706  1
  H  H149  1  0.50000000  0.20166870  0.32057986  1
  H  H150  1  0.50000000  0.20272882  0.43982608  1
  H  H151  1  0.50000000  0.72347802  0.01794003  1
  H  H152  1  0.50000000  0.72525826  0.13263305  1
  H  H153  1  0.50000000  0.72567106  0.25810092  1
  H  H154  1  0.50000000  0.72529634  0.37934865  1
  H  H155  1  0.50000000  0.75566529  0.45990693  1
  H  H156  1  0.50000000  0.76409319  0.98895185  1
  H  H157  1  0.50000000  0.84095828  0.97907393  1
