# generated using pymatgen
data_H13C36
_symmetry_space_group_name_H-M   'P 1'
_cell_length_a   10.00000000
_cell_length_b   25.62946000
_cell_length_c   19.86559536
_cell_angle_alpha   90.00000000
_cell_angle_beta   90.00000000
_cell_angle_gamma   90.00000000
_symmetry_Int_Tables_number   1
_chemical_formula_structural   H13C36
_chemical_formula_sum   'H26 C72'
_cell_volume   5091.44481624
_cell_formula_units_Z   2
loop_
 _symmetry_equiv_pos_site_id
 _symmetry_equiv_pos_as_xyz
  1  'x, y, z'
loop_
 _atom_site_type_symbol
 _atom_site_label
 _atom_site_symmetry_multiplicity
 _atom_site_fract_x
 _atom_site_fract_y
 _atom_site_fract_z
 _atom_site_occupancy
  C  C0  1  0.50000135  0.21909867  0.54424160  1
  C  C1  1  0.50000065  0.23663550  0.65818983  1
  C  C2  1  0.49999915  0.23760558  0.77875101  1
  C  C3  1  0.49999928  0.23602677  0.90168190  1
  C  C4  1  0.50000080  0.25876779  0.59267877  1
  C  C5  1  0.50000011  0.26494506  0.71730220  1
  C  C6  1  0.49999943  0.26385122  0.83967389  1
  C  C7  1  0.50000011  0.26231349  0.96156724  1
  C  C8  1  0.49999950  0.31708306  0.08910666  1
  C  C9  1  0.49999896  0.31428778  0.21382766  1
  C  C10  1  0.49999937  0.31339754  0.33910822  1
  C  C11  1  0.49999947  0.31800944  0.46502683  1
  C  C12  1  0.50000021  0.31694827  0.58956125  1
  C  C13  1  0.50000037  0.32110243  0.71508922  1
  C  C14  1  0.50000028  0.32005813  0.83960568  1
  C  C15  1  0.50000043  0.31782514  0.96399302  1
  C  C16  1  0.50000029  0.34447832  0.02817253  1
  C  C17  1  0.49999953  0.34194748  0.15257846  1
  C  C18  1  0.49999958  0.34001197  0.27670864  1
  C  C19  1  0.49999962  0.34085308  0.40049482  1
  C  C20  1  0.49999976  0.34504339  0.52663337  1
  C  C21  1  0.50000026  0.34688638  0.65070925  1
  C  C22  1  0.50000048  0.34829144  0.77708959  1
  C  C23  1  0.50000059  0.34658212  0.90234745  1
  C  C24  1  0.50000074  0.40112328  0.02916637  1
  C  C25  1  0.50000047  0.39863305  0.15328161  1
  C  C26  1  0.50000038  0.39718558  0.27666443  1
  C  C27  1  0.50000072  0.39680588  0.39948279  1
  C  C28  1  0.50000027  0.40241944  0.52559557  1
  C  C29  1  0.49999976  0.40430419  0.65050831  1
  C  C30  1  0.50000032  0.40426701  0.77717464  1
  C  C31  1  0.50000082  0.40268116  0.90284446  1
  C  C32  1  0.50000082  0.42603724  0.09117805  1
  C  C33  1  0.50000093  0.42447321  0.21505615  1
  C  C34  1  0.50000089  0.42384044  0.33826723  1
  C  C35  1  0.50000188  0.42389410  0.46094133  1
  C  C36  1  0.49999948  0.43278081  0.58867688  1
  C  C37  1  0.49999967  0.43196233  0.71478541  1
  C  C38  1  0.50000055  0.43112741  0.84062265  1
  C  C39  1  0.50000093  0.42975548  0.96526853  1
  C  C40  1  0.49999819  0.49020270  0.59187344  1
  C  C41  1  0.49999909  0.48825518  0.71695242  1
  C  C42  1  0.50000008  0.48686896  0.84156425  1
  C  C43  1  0.50000077  0.48435837  0.96410784  1
  C  C44  1  0.49999631  0.52370816  0.53513295  1
  C  C45  1  0.49999843  0.51733962  0.65547634  1
  C  C46  1  0.49999915  0.51545693  0.77992714  1
  C  C47  1  0.50000034  0.51351894  0.90492260  1
  C  C48  1  0.49999663  0.57730791  0.53755007  1
  C  C49  1  0.49999789  0.57386383  0.65826074  1
  C  C50  1  0.49999885  0.57173998  0.78220959  1
  C  C51  1  0.50000010  0.57028122  0.90702354  1
  C  C52  1  0.49999754  0.60433018  0.59828696  1
  C  C53  1  0.49999842  0.60061392  0.72156950  1
  C  C54  1  0.49999936  0.59888583  0.84564759  1
  C  C55  1  0.50000096  0.59810342  0.96811249  1
  C  C56  1  0.49999826  0.66099649  0.59911867  1
  C  C57  1  0.49999910  0.65698650  0.72327159  1
  C  C58  1  0.49999970  0.65493187  0.84748745  1
  C  C59  1  0.50000081  0.65219583  0.96962875  1
  C  C60  1  0.49999915  0.69095571  0.53964695  1
  C  C61  1  0.49999922  0.68679391  0.66219422  1
  C  C62  1  0.49999998  0.68345436  0.78564441  1
  C  C63  1  0.50000019  0.68189630  0.91044077  1
  C  C64  1  0.50000153  0.74564632  0.54169978  1
  C  C65  1  0.50000076  0.74298785  0.66422595  1
  C  C66  1  0.50000118  0.74004105  0.78765218  1
  C  C67  1  0.50000033  0.73937237  0.91263320  1
  C  C68  1  0.50000188  0.77158182  0.60294427  1
  C  C69  1  0.50000152  0.76825157  0.72695320  1
  C  C70  1  0.50000159  0.76593268  0.84994421  1
  C  C71  1  0.49999891  0.76763823  0.97205708  1
  H  H72  1  0.50000167  0.17914193  0.56402451  1
  H  H73  1  0.50000060  0.19401641  0.66235169  1
  H  H74  1  0.49999836  0.19482782  0.77789021  1
  H  H75  1  0.49999864  0.19327847  0.90058134  1
  H  H76  1  0.50000316  0.81433932  0.60490185  1
  H  H77  1  0.50000252  0.81102071  0.72856667  1
  H  H78  1  0.50000222  0.80872507  0.85025292  1
  H  H79  1  0.49999897  0.81038600  0.97052076  1
  H  H80  1  0.50000147  0.22057955  0.48968410  1
  H  H81  1  0.50000049  0.23976199  0.00817269  1
  H  H82  1  0.49999893  0.27442177  0.08901525  1
  H  H83  1  0.49999803  0.27146077  0.21253586  1
  H  H84  1  0.49999922  0.27055893  0.33952702  1
  H  H85  1  0.49999911  0.27608305  0.46600987  1
  H  H86  1  0.50000104  0.46866367  0.09448432  1
  H  H87  1  0.50000194  0.46726035  0.21604975  1
  H  H88  1  0.50000096  0.46667792  0.33850774  1
  H  H89  1  0.50000528  0.46500454  0.45167482  1
  H  H90  1  0.50000077  0.50507235  0.01193995  1
  H  H91  1  0.49999381  0.50984175  0.48434581  1
  H  H92  1  0.49999607  0.59816760  0.48956904  1
  H  H93  1  0.50000227  0.57743534  0.01626215  1
  H  H94  1  0.50000134  0.67168003  0.01858386  1
  H  H95  1  0.49999822  0.67184932  0.49046805  1
  H  H96  1  0.50000331  0.76774608  0.49443958  1
  H  H97  1  0.49999715  0.74942604  0.02182652  1
