# generated using pymatgen
data_H13C60
_symmetry_space_group_name_H-M   'P 1'
_cell_length_a   10.00000000
_cell_length_b   29.89204000
_cell_length_c   19.80487958
_cell_angle_alpha   90.00000000
_cell_angle_beta   90.00000000
_cell_angle_gamma   90.00000000
_symmetry_Int_Tables_number   1
_chemical_formula_structural   H13C60
_chemical_formula_sum   'H26 C120'
_cell_volume   5920.08252566
_cell_formula_units_Z   2
loop_
 _symmetry_equiv_pos_site_id
 _symmetry_equiv_pos_as_xyz
  1  'x, y, z'
loop_
 _atom_site_type_symbol
 _atom_site_label
 _atom_site_symmetry_multiplicity
 _atom_site_fract_x
 _atom_site_fract_y
 _atom_site_fract_z
 _atom_site_occupancy
  C  C0  1  0.49999984  0.83586588  0.49619438  1
  C  C1  1  0.49999993  0.83487933  0.61826963  1
  C  C2  1  0.50000000  0.83775547  0.74160909  1
  C  C3  1  0.50000021  0.84144381  0.86579798  1
  C  C4  1  0.49999999  0.15155185  0.52491949  1
  C  C5  1  0.50000001  0.16501822  0.64053326  1
  C  C6  1  0.50000001  0.16596870  0.76253794  1
  C  C7  1  0.49999999  0.16559172  0.88628428  1
  C  C8  1  0.50000000  0.18455787  0.57509549  1
  C  C9  1  0.50000001  0.18898772  0.70057222  1
  C  C10  1  0.50000001  0.18892321  0.82364750  1
  C  C11  1  0.50000000  0.18859684  0.94607425  1
  C  C12  1  0.50000004  0.23769064  0.07331462  1
  C  C13  1  0.50000005  0.23712047  0.19781146  1
  C  C14  1  0.50000004  0.23733761  0.32294127  1
  C  C15  1  0.50000002  0.23805859  0.44691875  1
  C  C16  1  0.50000000  0.23425153  0.57253160  1
  C  C17  1  0.50000002  0.23702926  0.69878742  1
  C  C18  1  0.50000003  0.23703544  0.82337388  1
  C  C19  1  0.50000003  0.23623990  0.94782484  1
  C  C20  1  0.50000004  0.26008924  0.01129081  1
  C  C21  1  0.50000004  0.26029562  0.13586049  1
  C  C22  1  0.50000006  0.25974692  0.26032096  1
  C  C23  1  0.50000004  0.26071396  0.38468216  1
  C  C24  1  0.50000001  0.25917875  0.51007843  1
  C  C25  1  0.50000001  0.25915047  0.63456025  1
  C  C26  1  0.50000004  0.26085828  0.76066237  1
  C  C27  1  0.50000003  0.26055799  0.88582495  1
  C  C28  1  0.49999994  0.30830007  0.01042098  1
  C  C29  1  0.49999997  0.30840158  0.13545446  1
  C  C30  1  0.50000006  0.30804372  0.26036973  1
  C  C31  1  0.50000004  0.30860696  0.38520967  1
  C  C32  1  0.50000001  0.30761150  0.51079986  1
  C  C33  1  0.50000001  0.30762075  0.63525834  1
  C  C34  1  0.50000003  0.30877362  0.76071398  1
  C  C35  1  0.49999996  0.30864954  0.88560053  1
  C  C36  1  0.49999982  0.33193066  0.07292168  1
  C  C37  1  0.49999996  0.33165244  0.19809778  1
  C  C38  1  0.50000003  0.33186163  0.32265957  1
  C  C39  1  0.50000003  0.33158758  0.44814400  1
  C  C40  1  0.50000001  0.33167720  0.57297905  1
  C  C41  1  0.50000001  0.33200731  0.69779319  1
  C  C42  1  0.49999997  0.33259527  0.82319150  1
  C  C43  1  0.49999982  0.33230802  0.94803651  1
  C  C44  1  0.49999937  0.37981176  0.07270262  1
  C  C45  1  0.49999964  0.37934538  0.19811354  1
  C  C46  1  0.49999995  0.37955170  0.32283985  1
  C  C47  1  0.50000003  0.37948456  0.44814862  1
  C  C48  1  0.50000003  0.37979313  0.57315489  1
  C  C49  1  0.49999999  0.38022064  0.69807147  1
  C  C50  1  0.49999976  0.38072484  0.82298436  1
  C  C51  1  0.49999941  0.38032057  0.94766814  1
  C  C52  1  0.49999915  0.40379587  0.01015046  1
  C  C53  1  0.49999908  0.40285120  0.13563337  1
  C  C54  1  0.49999971  0.40303064  0.26035304  1
  C  C55  1  0.50000000  0.40299973  0.38549723  1
  C  C56  1  0.50000003  0.40343187  0.51052630  1
  C  C57  1  0.50000003  0.40387545  0.63553491  1
  C  C58  1  0.49999990  0.40458902  0.76052225  1
  C  C59  1  0.49999925  0.40466466  0.88536387  1
  C  C60  1  0.49999881  0.45171857  0.01012150  1
  C  C61  1  0.49999859  0.45044240  0.13586894  1
  C  C62  1  0.49999959  0.45073597  0.26021249  1
  C  C63  1  0.49999996  0.45081549  0.38512145  1
  C  C64  1  0.50000002  0.45125589  0.51015253  1
  C  C65  1  0.50000002  0.45195898  0.63552841  1
  C  C66  1  0.50000001  0.45294239  0.76071469  1
  C  C67  1  0.49999893  0.45290494  0.88531037  1
  C  C68  1  0.49999864  0.47376887  0.07360298  1
  C  C69  1  0.49999930  0.47431703  0.19801531  1
  C  C70  1  0.49999980  0.47416608  0.32260162  1
  C  C71  1  0.50000000  0.47464341  0.44741989  1
  C  C72  1  0.50000002  0.47523071  0.57283219  1
  C  C73  1  0.50000002  0.47646873  0.69779687  1
  C  C74  1  0.49999991  0.47740397  0.82289354  1
  C  C75  1  0.49999874  0.47649671  0.94761849  1
  C  C76  1  0.50000286  0.52130240  0.07454412  1
  C  C77  1  0.49999998  0.52260095  0.19815923  1
  C  C78  1  0.49999972  0.52218759  0.32203362  1
  C  C79  1  0.49999999  0.52258873  0.44608503  1
  C  C80  1  0.50000003  0.52304288  0.57235271  1
  C  C81  1  0.50000000  0.52449489  0.69739738  1
  C  C82  1  0.50000008  0.52614705  0.82305213  1
  C  C83  1  0.50000225  0.52516778  0.94850837  1
  C  C84  1  0.50000997  0.54425819  0.01284829  1
  C  C85  1  0.50000248  0.54502071  0.13581330  1
  C  C86  1  0.49999974  0.54535973  0.26042737  1
  C  C87  1  0.49999990  0.54488003  0.38447296  1
  C  C88  1  0.50000001  0.54651168  0.50977833  1
  C  C89  1  0.50000008  0.54774691  0.63404345  1
  C  C90  1  0.50000011  0.54941112  0.75901327  1
  C  C91  1  0.50000010  0.55093094  0.88512853  1
  C  C92  1  0.49999995  0.59301321  0.50993976  1
  C  C93  1  0.50000019  0.59556796  0.63215859  1
  C  C94  1  0.50000103  0.59763998  0.75630024  1
  C  C95  1  0.49999760  0.60007344  0.88159498  1
  C  C96  1  0.49999998  0.61828679  0.56864328  1
  C  C97  1  0.50000074  0.62070282  0.69304941  1
  C  C98  1  0.50000102  0.62298058  0.81748972  1
  C  C99  1  0.49998993  0.62944014  0.93797219  1
  C  C100  1  0.49999996  0.66676032  0.56480412  1
  C  C101  1  0.50000062  0.66887315  0.68955116  1
  C  C102  1  0.50000158  0.67143001  0.81369820  1
  C  C103  1  0.49999632  0.67534063  0.93459427  1
  C  C104  1  0.49999985  0.68995607  0.50281345  1
  C  C105  1  0.50000014  0.69179280  0.62559633  1
  C  C106  1  0.50000110  0.69404817  0.74986379  1
  C  C107  1  0.50000211  0.69807879  0.87322746  1
  C  C108  1  0.49999985  0.73630385  0.49997093  1
  C  C109  1  0.50000005  0.73977811  0.62251023  1
  C  C110  1  0.50000081  0.74238102  0.74697191  1
  C  C111  1  0.50000202  0.74660519  0.87139148  1
  C  C112  1  0.49999990  0.76232583  0.55884774  1
  C  C113  1  0.50000024  0.76469716  0.68400595  1
  C  C114  1  0.50000110  0.76832330  0.80775390  1
  C  C115  1  0.50000143  0.77279201  0.93055872  1
  C  C116  1  0.49999989  0.81159989  0.55580140  1
  C  C117  1  0.50000005  0.81316566  0.68111438  1
  C  C118  1  0.50000038  0.81648389  0.80482871  1
  C  C119  1  0.50000056  0.81963944  0.92756990  1
  H  H120  1  0.49999985  0.87251726  0.49833774  1
  H  H121  1  0.49999992  0.87159394  0.61728103  1
  H  H122  1  0.49999976  0.87441596  0.73936531  1
  H  H123  1  0.49999977  0.87808372  0.86313481  1
  H  H124  1  0.49999999  0.11675818  0.54253587  1
  H  H125  1  0.50000001  0.12838996  0.64375502  1
  H  H126  1  0.50000000  0.12929022  0.76221185  1
  H  H127  1  0.49999997  0.12890029  0.88566320  1
  H  H128  1  0.49999977  0.82069043  0.44598721  1
  H  H129  1  0.49999998  0.15459432  0.47035402  1
  H  H130  1  0.49999998  0.16947705  0.99311621  1
  H  H131  1  0.50000002  0.20115025  0.07515714  1
  H  H132  1  0.50000002  0.20040914  0.19746446  1
  H  H133  1  0.50000001  0.20065019  0.32377043  1
  H  H134  1  0.50000003  0.20210919  0.44378444  1
  H  H135  1  0.50002762  0.57955653  0.02100120  1
  H  H136  1  0.50000326  0.58173635  0.13496160  1
  H  H137  1  0.50000007  0.58205282  0.26094000  1
  H  H138  1  0.49999994  0.58138363  0.38215631  1
  H  H139  1  0.49999992  0.61044002  0.46182903  1
  H  H140  1  0.49997203  0.61820578  0.98926194  1
  H  H141  1  0.49999319  0.69364634  0.98232648  1
  H  H142  1  0.49999981  0.67175192  0.45496791  1
  H  H143  1  0.49999982  0.75259677  0.45048712  1
  H  H144  1  0.50000151  0.75688525  0.98023159  1
  H  H145  1  0.50000020  0.83902216  0.97451033  1
