# generated using pymatgen
data_H15C52
_symmetry_space_group_name_H-M   'P 1'
_cell_length_a   10.00000000
_cell_length_b   29.89204000
_cell_length_c   19.77647845
_cell_angle_alpha   90.00000000
_cell_angle_beta   90.00000000
_cell_angle_gamma   90.00000000
_symmetry_Int_Tables_number   1
_chemical_formula_structural   H15C52
_chemical_formula_sum   'H30 C104'
_cell_volume   5911.59284898
_cell_formula_units_Z   2
loop_
 _symmetry_equiv_pos_site_id
 _symmetry_equiv_pos_as_xyz
  1  'x, y, z'
loop_
 _atom_site_type_symbol
 _atom_site_label
 _atom_site_symmetry_multiplicity
 _atom_site_fract_x
 _atom_site_fract_y
 _atom_site_fract_z
 _atom_site_occupancy
  C  C0  1  0.50000000  0.84564937  0.53181667  1
  C  C1  1  0.50000000  0.83936614  0.65429317  1
  C  C2  1  0.50000000  0.83601003  0.77820691  1
  C  C3  1  0.50000000  0.83357834  0.90281830  1
  C  C4  1  0.50000000  0.16212751  -0.00488339  1
  C  C5  1  0.50000000  0.16032316  0.12098527  1
  C  C6  1  0.50000000  0.15987173  0.24745480  1
  C  C7  1  0.50000000  0.16202848  0.37414724  1
  C  C8  1  0.50000000  0.16495272  0.49913836  1
  C  C9  1  0.50000000  0.16693187  0.62238895  1
  C  C10  1  0.50000000  0.16642088  0.74567263  1
  C  C11  1  0.50000000  0.16439841  0.86998322  1
  C  C12  1  0.50000000  0.18370629  0.05865088  1
  C  C13  1  0.50000000  0.18241986  0.18438206  1
  C  C14  1  0.50000000  0.18303078  0.31008088  1
  C  C15  1  0.50000000  0.18628571  0.43581926  1
  C  C16  1  0.50000000  0.18938672  0.56004252  1
  C  C17  1  0.50000000  0.19001969  0.68404737  1
  C  C18  1  0.50000000  0.18830465  0.80848373  1
  C  C19  1  0.50000000  0.18604371  0.93335233  1
  C  C20  1  0.50000000  0.23219854  0.05937793  1
  C  C21  1  0.50000000  0.23091676  0.18449819  1
  C  C22  1  0.50000000  0.23140035  0.30926491  1
  C  C23  1  0.50000000  0.23481720  0.43501068  1
  C  C24  1  0.50000000  0.23795914  0.55940047  1
  C  C25  1  0.50000000  0.23857487  0.68381172  1
  C  C26  1  0.50000000  0.23679091  0.80899161  1
  C  C27  1  0.50000000  0.23448822  0.93429226  1
  C  C28  1  0.50000000  0.25687623  -0.00249541  1
  C  C29  1  0.50000000  0.25480646  0.12232197  1
  C  C30  1  0.50000000  0.25462308  0.24668411  1
  C  C31  1  0.50000000  0.25574512  0.37097596  1
  C  C32  1  0.50000000  0.26059211  0.49660555  1
  C  C33  1  0.50000000  0.26252116  0.62152543  1
  C  C34  1  0.50000000  0.26143002  0.74692807  1
  C  C35  1  0.50000000  0.25917715  0.87207361  1
  C  C36  1  0.50000000  0.30514642  -0.00084873  1
  C  C37  1  0.50000000  0.30306836  0.12296825  1
  C  C38  1  0.50000000  0.30305765  0.24626349  1
  C  C39  1  0.50000000  0.30349949  0.36948973  1
  C  C40  1  0.50000000  0.30950213  0.49514272  1
  C  C41  1  0.50000000  0.31115655  0.62104950  1
  C  C42  1  0.50000000  0.30935366  0.74740063  1
  C  C43  1  0.50000000  0.30708189  0.87288971  1
  C  C44  1  0.50000000  0.32661353  0.06111492  1
  C  C45  1  0.50000000  0.32599263  0.18435951  1
  C  C46  1  0.50000000  0.32627857  0.30776277  1
  C  C47  1  0.50000000  0.32772234  0.43034531  1
  C  C48  1  0.50000000  0.33551842  0.55878699  1
  C  C49  1  0.50000000  0.33413964  0.68554350  1
  C  C50  1  0.50000000  0.33201727  0.81116674  1
  C  C51  1  0.50000000  0.33000711  0.93581514  1
  C  C52  1  0.50000000  0.38451271  0.56268253  1
  C  C53  1  0.50000000  0.38213526  0.68834257  1
  C  C54  1  0.50000000  0.37976250  0.81304060  1
  C  C55  1  0.50000000  0.37661530  0.93585875  1
  C  C56  1  0.50000000  0.41361101  0.50596999  1
  C  C57  1  0.50000000  0.40735023  0.62703384  1
  C  C58  1  0.50000000  0.40495976  0.75190202  1
  C  C59  1  0.50000000  0.40209412  0.87688662  1
  C  C60  1  0.50000000  0.45943260  0.50942065  1
  C  C61  1  0.50000000  0.45570188  0.63090165  1
  C  C62  1  0.50000000  0.45299774  0.75522270  1
  C  C63  1  0.50000000  0.45047549  0.88013315  1
  C  C64  1  0.50000000  0.48218396  0.57121747  1
  C  C65  1  0.50000000  0.47842019  0.69482278  1
  C  C66  1  0.50000000  0.47562425  0.81921190  1
  C  C67  1  0.50000000  0.47360410  0.94228773  1
  C  C68  1  0.50000000  0.53036138  0.57357517  1
  C  C69  1  0.50000000  0.52662472  0.69778745  1
  C  C70  1  0.50000000  0.52353815  0.82216365  1
  C  C71  1  0.50000000  0.51968943  0.94509404  1
  C  C72  1  0.50000000  0.55636760  0.51407708  1
  C  C73  1  0.50000000  0.55257513  0.63703358  1
  C  C74  1  0.50000000  0.54914659  0.76109566  1
  C  C75  1  0.50000000  0.54581586  0.88585248  1
  C  C76  1  0.50000000  0.60252485  0.51654664  1
  C  C77  1  0.50000000  0.60046353  0.63962374  1
  C  C78  1  0.50000000  0.59721970  0.76404009  1
  C  C79  1  0.50000000  0.59417286  0.88890550  1
  C  C80  1  0.50000000  0.62579058  0.57854293  1
  C  C81  1  0.50000000  0.62282559  0.70357700  1
  C  C82  1  0.50000000  0.61964452  0.82807499  1
  C  C83  1  0.50000000  0.61725239  0.95106787  1
  C  C84  1  0.50000000  0.67423382  0.58126664  1
  C  C85  1  0.50000000  0.67085335  0.70644132  1
  C  C86  1  0.50000000  0.66760270  0.83118807  1
  C  C87  1  0.50000000  0.66346798  0.95405707  1
  C  C88  1  0.50000000  0.70051881  0.52216971  1
  C  C89  1  0.50000000  0.69643334  0.64508576  1
  C  C90  1  0.50000000  0.69303345  0.76983590  1
  C  C91  1  0.50000000  0.68985211  0.89512417  1
  C  C92  1  0.50000000  0.74685272  0.52486014  1
  C  C93  1  0.50000000  0.74440853  0.64772456  1
  C  C94  1  0.50000000  0.74108968  0.77264367  1
  C  C95  1  0.50000000  0.73856050  0.89824718  1
  C  C96  1  0.50000000  0.76993682  0.58663736  1
  C  C97  1  0.50000000  0.76625938  0.71210730  1
  C  C98  1  0.50000000  0.76345458  0.83679377  1
  C  C99  1  0.50000000  0.76197626  0.96006531  1
  C  C100  1  0.50000000  0.81916960  0.58926592  1
  C  C101  1  0.50000000  0.81468815  0.71476608  1
  C  C102  1  0.50000000  0.81164568  0.83910196  1
  C  C103  1  0.50000000  0.80887542  0.96219113  1
  H  H104  1  0.50000000  0.88217994  0.53627111  1
  H  H105  1  0.50000000  0.87600207  0.65734261  1
  H  H106  1  0.50000000  0.87268144  0.78030655  1
  H  H107  1  0.50000000  0.87025161  0.90412468  1
  H  H108  1  0.50000000  0.12545049  -0.00656396  1
  H  H109  1  0.50000000  0.12361336  0.12002000  1
  H  H110  1  0.50000000  0.12315094  0.24770115  1
  H  H111  1  0.50000000  0.12535044  0.37673372  1
  H  H112  1  0.50000000  0.12828454  0.50177938  1
  H  H113  1  0.50000000  0.13026324  0.62275192  1
  H  H114  1  0.50000000  0.12974807  0.74428488  1
  H  H115  1  0.50000000  0.12772031  0.86828250  1
  H  H116  1  0.50000000  0.83176048  0.48069486  1
  H  H117  1  0.50000000  0.36311549  0.06462789  1
  H  H118  1  0.50000000  0.36266909  0.18455059  1
  H  H119  1  0.50000000  0.36297572  0.30705503  1
  H  H120  1  0.50000000  0.36295774  0.42029703  1
  H  H121  1  0.50000000  0.39402965  0.98414060  1
  H  H122  1  0.50000000  0.40171852  0.45486872  1
  H  H123  1  0.50000000  0.47768356  0.46156989  1
  H  H124  1  0.50000000  0.45539584  0.99016413  1
  H  H125  1  0.50000000  0.53568492  0.99474589  1
  H  H126  1  0.50000000  0.54029142  0.46448416  1
  H  H127  1  0.50000000  0.62091289  0.46879688  1
  H  H128  1  0.50000000  0.59872441  0.99867530  1
  H  H129  1  0.50000000  0.67919691  1.00396330  1
  H  H130  1  0.50000000  0.68454844  0.47245462  1
  H  H131  1  0.50000000  0.76547118  0.47726200  1
  H  H132  1  0.50000000  0.74368389  1.00794667  1
  H  H133  1  0.50000000  0.82588538  1.01130084  1
