# generated using pymatgen
data_H11C28
_symmetry_space_group_name_H-M   'P 1'
_cell_length_a   10.00000000
_cell_length_b   21.36688000
_cell_length_c   19.76145304
_cell_angle_alpha   90.00000000
_cell_angle_beta   90.00000000
_cell_angle_gamma   90.00000000
_symmetry_Int_Tables_number   1
_chemical_formula_structural   H11C28
_chemical_formula_sum   'H22 C56'
_cell_volume   4222.40595833
_cell_formula_units_Z   2
loop_
 _symmetry_equiv_pos_site_id
 _symmetry_equiv_pos_as_xyz
  1  'x, y, z'
loop_
 _atom_site_type_symbol
 _atom_site_label
 _atom_site_symmetry_multiplicity
 _atom_site_fract_x
 _atom_site_fract_y
 _atom_site_fract_z
 _atom_site_occupancy
  C  C0  1  0.50000000  0.27978442  0.03377797  1
  C  C1  1  0.50000000  0.27087572  0.16086046  1
  C  C2  1  0.50000000  0.26929804  0.28785795  1
  C  C3  1  0.50000000  0.27269507  0.41476821  1
  C  C4  1  0.50000000  0.27847227  0.54018125  1
  C  C5  1  0.50000000  0.28360844  0.66485850  1
  C  C6  1  0.50000000  0.28771805  0.78876596  1
  C  C7  1  0.50000000  0.28708165  0.91119226  1
  C  C8  1  0.50000000  0.30520303  0.09945164  1
  C  C9  1  0.50000000  0.30096336  0.22478398  1
  C  C10  1  0.50000000  0.30171240  0.35045574  1
  C  C11  1  0.50000000  0.30735389  0.47596879  1
  C  C12  1  0.50000000  0.31288948  0.60120538  1
  C  C13  1  0.50000000  0.31787146  0.72579335  1
  C  C14  1  0.50000000  0.32071381  0.85023879  1
  C  C15  1  0.50000000  0.31691895  0.97417856  1
  C  C16  1  0.50000000  0.37290669  0.10224827  1
  C  C17  1  0.50000000  0.36944234  0.22572827  1
  C  C18  1  0.50000000  0.36990287  0.34929213  1
  C  C19  1  0.50000000  0.37558795  0.47326402  1
  C  C20  1  0.50000000  0.38072861  0.59909266  1
  C  C21  1  0.50000000  0.38564322  0.72452834  1
  C  C22  1  0.50000000  0.38902630  0.85082226  1
  C  C23  1  0.50000000  0.38578984  0.97664466  1
  C  C24  1  0.50000000  0.40915182  0.04245463  1
  C  C25  1  0.50000000  0.40300239  0.16486765  1
  C  C26  1  0.50000000  0.40136997  0.28769752  1
  C  C27  1  0.50000000  0.40403508  0.41053462  1
  C  C28  1  0.50000000  0.41162488  0.53591691  1
  C  C29  1  0.50000000  0.41639700  0.66031169  1
  C  C30  1  0.50000000  0.42036808  0.78585356  1
  C  C31  1  0.50000000  0.42246098  0.91302332  1
  C  C32  1  0.50000000  0.47744997  0.53485475  1
  C  C33  1  0.50000000  0.48323338  0.65758174  1
  C  C34  1  0.50000000  0.48754093  0.78264871  1
  C  C35  1  0.50000000  0.49138989  0.90884806  1
  C  C36  1  0.50000000  0.51385781  0.59305571  1
  C  C37  1  0.50000000  0.51850671  0.71870939  1
  C  C38  1  0.50000000  0.52284470  0.84416130  1
  C  C39  1  0.50000000  0.53172944  0.96541222  1
  C  C40  1  0.50000000  0.58222755  0.58935106  1
  C  C41  1  0.50000000  0.58575674  0.71510130  1
  C  C42  1  0.50000000  0.59040415  0.84004403  1
  C  C43  1  0.50000000  0.59632584  0.96153044  1
  C  C44  1  0.50000000  0.61479119  0.52749275  1
  C  C45  1  0.50000000  0.61692145  0.65071545  1
  C  C46  1  0.50000000  0.62082579  0.77541301  1
  C  C47  1  0.50000000  0.62770265  0.89981919  1
  C  C48  1  0.50000000  0.68042228  0.52506268  1
  C  C49  1  0.50000000  0.68433107  0.64806104  1
  C  C50  1  0.50000000  0.68871322  0.77230364  1
  C  C51  1  0.50000000  0.69648813  0.89707408  1
  C  C52  1  0.50000000  0.71502952  0.58434610  1
  C  C53  1  0.50000000  0.71842288  0.70886307  1
  C  C54  1  0.50000000  0.72423757  0.83199935  1
  C  C55  1  0.50000000  0.73372631  0.95435400  1
  H  H56  1  0.50000000  0.22877104  0.02729470  1
  H  H57  1  0.50000000  0.21954159  0.15901668  1
  H  H58  1  0.50000000  0.21790208  0.28828000  1
  H  H59  1  0.50000000  0.22138245  0.41776315  1
  H  H60  1  0.50000000  0.22719817  0.54304174  1
  H  H61  1  0.50000000  0.23232879  0.66740543  1
  H  H62  1  0.50000000  0.23638055  0.79037816  1
  H  H63  1  0.50000000  0.23576551  0.90912432  1
  H  H64  1  0.50000000  0.76633271  0.58308215  1
  H  H65  1  0.50000000  0.76971853  0.70685918  1
  H  H66  1  0.50000000  0.77543905  0.82806737  1
  H  H67  1  0.50000000  0.78480564  0.94955305  1
  H  H68  1  0.50000000  0.45842963  0.05404925  1
  H  H69  1  0.50000000  0.45432782  0.16701639  1
  H  H70  1  0.50000000  0.45272020  0.28744708  1
  H  H71  1  0.50000000  0.45508009  0.40576360  1
  H  H72  1  0.50000000  0.50110188  0.48603717  1
  H  H73  1  0.50000000  0.51426243  0.01641789  1
  H  H74  1  0.50000000  0.62244513  0.00912334  1
  H  H75  1  0.50000000  0.58906267  0.47966127  1
  H  H76  1  0.50000000  0.70415454  0.47588532  1
  H  H77  1  0.50000000  0.71453756  0.00560461  1
