# generated using pymatgen
data_H11C60
_symmetry_space_group_name_H-M   'P 1'
_cell_length_a   10.00000000
_cell_length_b   29.89204000
_cell_length_c   19.76938662
_cell_angle_alpha   90.00000000
_cell_angle_beta   90.00000000
_cell_angle_gamma   90.00000000
_symmetry_Int_Tables_number   1
_chemical_formula_structural   H11C60
_chemical_formula_sum   'H22 C120'
_cell_volume   5909.47295510
_cell_formula_units_Z   2
loop_
 _symmetry_equiv_pos_site_id
 _symmetry_equiv_pos_as_xyz
  1  'x, y, z'
loop_
 _atom_site_type_symbol
 _atom_site_label
 _atom_site_symmetry_multiplicity
 _atom_site_fract_x
 _atom_site_fract_y
 _atom_site_fract_z
 _atom_site_occupancy
  C  C0  1  0.50000002  0.20122224  0.00876932  1
  C  C1  1  0.50000000  0.20075018  0.13387587  1
  C  C2  1  0.49999999  0.20047652  0.25928414  1
  C  C3  1  0.50000001  0.20062613  0.38478491  1
  C  C4  1  0.50000002  0.20108780  0.50999076  1
  C  C5  1  0.50000000  0.20154581  0.63485107  1
  C  C6  1  0.49999999  0.20173386  0.75945744  1
  C  C7  1  0.50000002  0.20161737  0.88400415  1
  C  C8  1  0.50000001  0.22375656  0.07144478  1
  C  C9  1  0.49999999  0.22328979  0.19666572  1
  C  C10  1  0.49999999  0.22319758  0.32201436  1
  C  C11  1  0.50000001  0.22361508  0.44726883  1
  C  C12  1  0.50000001  0.22418339  0.57231607  1
  C  C13  1  0.49999999  0.22455185  0.69710174  1
  C  C14  1  0.50000001  0.22459999  0.82175041  1
  C  C15  1  0.50000002  0.22427929  0.94647803  1
  C  C16  1  0.50000002  0.27209998  0.07146701  1
  C  C17  1  0.50000000  0.27164309  0.19671172  1
  C  C18  1  0.49999999  0.27155755  0.32207055  1
  C  C19  1  0.50000000  0.27198086  0.44724816  1
  C  C20  1  0.50000001  0.27256333  0.57227614  1
  C  C21  1  0.50000000  0.27296191  0.69705589  1
  C  C22  1  0.50000000  0.27299505  0.82173672  1
  C  C23  1  0.50000002  0.27263835  0.94648689  1
  C  C24  1  0.50000002  0.29601409  0.00904479  1
  C  C25  1  0.50000001  0.29542544  0.13415839  1
  C  C26  1  0.50000000  0.29509688  0.25943963  1
  C  C27  1  0.50000000  0.29535906  0.38459557  1
  C  C28  1  0.50000001  0.29592253  0.50965183  1
  C  C29  1  0.50000001  0.29653738  0.63458767  1
  C  C30  1  0.50000000  0.29678142  0.75939508  1
  C  C31  1  0.50000000  0.29656537  0.88416994  1
  C  C32  1  0.49999999  0.34395579  0.00892560  1
  C  C33  1  0.50000000  0.34329320  0.13412391  1
  C  C34  1  0.50000002  0.34296174  0.25946818  1
  C  C35  1  0.50000001  0.34329137  0.38461626  1
  C  C36  1  0.50000001  0.34389985  0.50970437  1
  C  C37  1  0.50000001  0.34458383  0.63468802  1
  C  C38  1  0.50000001  0.34481585  0.75945258  1
  C  C39  1  0.49999999  0.34456713  0.88409903  1
  C  C40  1  0.49999997  0.36725667  0.07161187  1
  C  C41  1  0.50000002  0.36660995  0.19690786  1
  C  C42  1  0.50000002  0.36675836  0.32197253  1
  C  C43  1  0.50000001  0.36730242  0.44703037  1
  C  C44  1  0.50000001  0.36808459  0.57210012  1
  C  C45  1  0.50000001  0.36867535  0.69710048  1
  C  C46  1  0.50000000  0.36866874  0.82181549  1
  C  C47  1  0.49999996  0.36813720  0.94654796  1
  C  C48  1  0.49999986  0.41504871  0.07153172  1
  C  C49  1  0.49999994  0.41428974  0.19697874  1
  C  C50  1  0.50000002  0.41454144  0.32196438  1
  C  C51  1  0.50000000  0.41515831  0.44701327  1
  C  C52  1  0.49999999  0.41602476  0.57218653  1
  C  C53  1  0.50000001  0.41670840  0.69723591  1
  C  C54  1  0.49999997  0.41675645  0.82185493  1
  C  C55  1  0.49999987  0.41606012  0.94643659  1
  C  C56  1  0.49999980  0.43928546  0.00903237  1
  C  C57  1  0.49999979  0.43797002  0.13457012  1
  C  C58  1  0.49999996  0.43801250  0.25937718  1
  C  C59  1  0.50000001  0.43846898  0.38433960  1
  C  C60  1  0.49999998  0.43938858  0.50938544  1
  C  C61  1  0.50000000  0.44022229  0.63458469  1
  C  C62  1  0.50000000  0.44089579  0.75965602  1
  C  C63  1  0.49999982  0.44055938  0.88431313  1
  C  C64  1  0.49999968  0.48717291  0.00912963  1
  C  C65  1  0.49999963  0.48552573  0.13489896  1
  C  C66  1  0.49999990  0.48576311  0.25928832  1
  C  C67  1  0.49999998  0.48629394  0.38406443  1
  C  C68  1  0.50000000  0.48718873  0.50909546  1
  C  C69  1  0.50000003  0.48820127  0.63452379  1
  C  C70  1  0.50000000  0.48914920  0.75994058  1
  C  C71  1  0.49999968  0.48880233  0.88448150  1
  C  C72  1  0.49999963  0.50901567  0.07266714  1
  C  C73  1  0.49999982  0.50932431  0.19708181  1
  C  C74  1  0.49999994  0.50950690  0.32153818  1
  C  C75  1  0.49999999  0.51042010  0.44630386  1
  C  C76  1  0.50000004  0.51131997  0.57169934  1
  C  C77  1  0.50000003  0.51256802  0.69694528  1
  C  C78  1  0.49999993  0.51351162  0.82228281  1
  C  C79  1  0.49999959  0.51219040  0.94691949  1
  C  C80  1  0.50000078  0.55649697  0.07374966  1
  C  C81  1  0.49999999  0.55755949  0.19723018  1
  C  C82  1  0.49999989  0.55755531  0.32099161  1
  C  C83  1  0.50000004  0.55839949  0.44504297  1
  C  C84  1  0.50000019  0.55911582  0.57130512  1
  C  C85  1  0.50000006  0.56055229  0.69682239  1
  C  C86  1  0.49999984  0.56218222  0.82277769  1
  C  C87  1  0.50000042  0.56079794  0.94799276  1
  C  C88  1  0.50000264  0.57977147  0.01239460  1
  C  C89  1  0.50000071  0.58008211  0.13501661  1
  C  C90  1  0.49999989  0.58053001  0.25926260  1
  C  C91  1  0.49999996  0.58054449  0.38324014  1
  C  C92  1  0.50000024  0.58256812  0.50869602  1
  C  C93  1  0.50000026  0.58373670  0.63325527  1
  C  C94  1  0.49999993  0.58536135  0.75876374  1
  C  C95  1  0.49999967  0.58683577  0.88507247  1
  C  C96  1  0.50000048  0.62917880  0.50915342  1
  C  C97  1  0.50000044  0.63151408  0.63170961  1
  C  C98  1  0.50000017  0.63352510  0.75652216  1
  C  C99  1  0.49999882  0.63609428  0.88224059  1
  C  C100  1  0.50000063  0.65431283  0.56808366  1
  C  C101  1  0.50000033  0.65632316  0.69311205  1
  C  C102  1  0.50000001  0.65886404  0.81802340  1
  C  C103  1  0.49999633  0.66548153  0.93874104  1
  C  C104  1  0.50000057  0.70294795  0.56477501  1
  C  C105  1  0.50000025  0.70446093  0.69004435  1
  C  C106  1  0.50000028  0.70734406  0.81448787  1
  C  C107  1  0.49999818  0.71153481  0.93537378  1
  C  C108  1  0.50000063  0.72646915  0.50305834  1
  C  C109  1  0.50000024  0.72730929  0.62622655  1
  C  C110  1  0.50000025  0.72941154  0.75038630  1
  C  C111  1  0.50000034  0.73423895  0.87407307  1
  C  C112  1  0.49999987  0.77332380  0.50099510  1
  C  C113  1  0.49999996  0.77541603  0.62393921  1
  C  C114  1  0.50000009  0.77792971  0.74767777  1
  C  C115  1  0.50000064  0.78339629  0.87202636  1
  C  C116  1  0.49999960  0.79770712  0.56059474  1
  C  C117  1  0.49999995  0.79960569  0.68469471  1
  C  C118  1  0.50000018  0.80329820  0.80717906  1
  C  C119  1  0.50000113  0.81054772  0.92882296  1
  H  H120  1  0.50000002  0.16453404  0.00839126  1
  H  H121  1  0.49999999  0.16405468  0.13342306  1
  H  H122  1  0.49999999  0.16377781  0.25910764  1
  H  H123  1  0.50000002  0.16393324  0.38503621  1
  H  H124  1  0.50000006  0.16438187  0.51045227  1
  H  H125  1  0.50000000  0.16485424  0.63523803  1
  H  H126  1  0.49999997  0.16504038  0.75958079  1
  H  H127  1  0.50000002  0.16492764  0.88378683  1
  H  H128  1  0.49999903  0.83436979  0.56008186  1
  H  H129  1  0.50000003  0.83630597  0.68317618  1
  H  H130  1  0.49999997  0.83989474  0.80321895  1
  H  H131  1  0.50000076  0.84695995  0.92212282  1
  H  H132  1  0.50000746  0.61504002  0.02082547  1
  H  H133  1  0.50000098  0.61675857  0.13399199  1
  H  H134  1  0.49999996  0.61719251  0.25903023  1
  H  H135  1  0.50000002  0.61706523  0.38080705  1
  H  H136  1  0.50000034  0.64675207  0.46104211  1
  H  H137  1  0.49999097  0.65439872  0.99024742  1
  H  H138  1  0.49999685  0.72987548  0.98323845  1
  H  H139  1  0.50000127  0.70837971  0.45502691  1
  H  H140  1  0.49999941  0.79053716  0.45207120  1
  H  H141  1  0.50000194  0.79798615  0.98072084  1
