# generated using pymatgen
data_H3C16
_symmetry_space_group_name_H-M   'P 1'
_cell_length_a   10.00000000
_cell_length_b   29.89204000
_cell_length_c   19.79650444
_cell_angle_alpha   90.00000000
_cell_angle_beta   90.00000000
_cell_angle_gamma   90.00000000
_symmetry_Int_Tables_number   1
_chemical_formula_structural   H3C16
_chemical_formula_sum   'H24 C128'
_cell_volume   5917.57902594
_cell_formula_units_Z   8
loop_
 _symmetry_equiv_pos_site_id
 _symmetry_equiv_pos_as_xyz
  1  'x, y, z'
loop_
 _atom_site_type_symbol
 _atom_site_label
 _atom_site_symmetry_multiplicity
 _atom_site_fract_x
 _atom_site_fract_y
 _atom_site_fract_z
 _atom_site_occupancy
  C  C0  1  0.50000000  0.84652686  0.52321054  1
  C  C1  1  0.50000000  0.83942437  0.64489568  1
  C  C2  1  0.50000000  0.83550245  0.76722218  1
  C  C3  1  0.50000000  0.83363144  0.89116284  1
  C  C4  1  0.50000000  0.15174229  0.51917250  1
  C  C5  1  0.50000000  0.16517994  0.63484574  1
  C  C6  1  0.50000000  0.16600985  0.75700151  1
  C  C7  1  0.50000000  0.16566957  0.88090044  1
  C  C8  1  0.50000000  0.18473899  0.56937871  1
  C  C9  1  0.50000000  0.18904602  0.69496862  1
  C  C10  1  0.50000000  0.18897131  0.81815430  1
  C  C11  1  0.50000000  0.18870149  0.94072378  1
  C  C12  1  0.50000000  0.23793273  0.06804747  1
  C  C13  1  0.50000000  0.23765911  0.19257934  1
  C  C14  1  0.50000000  0.23801281  0.31741541  1
  C  C15  1  0.50000000  0.23851283  0.44125946  1
  C  C16  1  0.50000000  0.23444170  0.56683508  1
  C  C17  1  0.50000000  0.23707424  0.69312696  1
  C  C18  1  0.50000000  0.23705945  0.81782761  1
  C  C19  1  0.50000000  0.23630590  0.94246791  1
  C  C20  1  0.50000000  0.26024263  0.00593276  1
  C  C21  1  0.50000000  0.26067551  0.13052861  1
  C  C22  1  0.50000000  0.26050198  0.25489891  1
  C  C23  1  0.50000000  0.26134355  0.37916670  1
  C  C24  1  0.50000000  0.25951964  0.50446521  1
  C  C25  1  0.50000000  0.25925970  0.62889587  1
  C  C26  1  0.50000000  0.26086735  0.75500165  1
  C  C27  1  0.50000000  0.26054544  0.88035609  1
  C  C28  1  0.50000000  0.30838218  0.00506740  1
  C  C29  1  0.50000000  0.30877795  0.13010680  1
  C  C30  1  0.50000000  0.30880076  0.25494913  1
  C  C31  1  0.50000000  0.30925481  0.37977928  1
  C  C32  1  0.50000000  0.30800004  0.50523408  1
  C  C33  1  0.50000000  0.30771461  0.62954327  1
  C  C34  1  0.50000000  0.30873707  0.75492202  1
  C  C35  1  0.50000000  0.30857853  0.88000369  1
  C  C36  1  0.50000000  0.33217217  0.06751838  1
  C  C37  1  0.50000000  0.33232989  0.19256735  1
  C  C38  1  0.50000000  0.33260082  0.31730491  1
  C  C39  1  0.50000000  0.33222525  0.44275410  1
  C  C40  1  0.50000000  0.33195607  0.56741383  1
  C  C41  1  0.50000000  0.33202459  0.69198156  1
  C  C42  1  0.50000000  0.33245494  0.81747810  1
  C  C43  1  0.50000000  0.33219402  0.94254296  1
  C  C44  1  0.50000000  0.38002493  0.06722446  1
  C  C45  1  0.50000000  0.38004463  0.19239118  1
  C  C46  1  0.50000000  0.38027449  0.31752575  1
  C  C47  1  0.50000000  0.38017482  0.44292777  1
  C  C48  1  0.50000000  0.38011970  0.56759320  1
  C  C49  1  0.50000000  0.38020090  0.69201696  1
  C  C50  1  0.50000000  0.38041723  0.81706514  1
  C  C51  1  0.50000000  0.38007472  0.94214639  1
  C  C52  1  0.50000000  0.40375589  0.00468492  1
  C  C53  1  0.50000000  0.40359920  0.12976679  1
  C  C54  1  0.50000000  0.40362942  0.25483191  1
  C  C55  1  0.50000000  0.40381645  0.38030225  1
  C  C56  1  0.50000000  0.40410117  0.50532861  1
  C  C57  1  0.50000000  0.40426718  0.62978725  1
  C  C58  1  0.50000000  0.40429416  0.75437795  1
  C  C59  1  0.50000000  0.40407777  0.87959776  1
  C  C60  1  0.50000000  0.45153912  0.00459545  1
  C  C61  1  0.50000000  0.45128789  0.12970311  1
  C  C62  1  0.50000000  0.45118998  0.25472556  1
  C  C63  1  0.50000000  0.45159135  0.38025182  1
  C  C64  1  0.50000000  0.45207905  0.50531943  1
  C  C65  1  0.50000000  0.45246192  0.62974754  1
  C  C66  1  0.50000000  0.45238869  0.75425061  1
  C  C67  1  0.50000000  0.45200516  0.87938429  1
  C  C68  1  0.50000000  0.47498630  0.06720683  1
  C  C69  1  0.50000000  0.47478784  0.19227730  1
  C  C70  1  0.50000000  0.47468570  0.31722144  1
  C  C71  1  0.50000000  0.47555926  0.44277831  1
  C  C72  1  0.50000000  0.47646347  0.56743612  1
  C  C73  1  0.50000000  0.47662279  0.69190324  1
  C  C74  1  0.50000000  0.47603478  0.81687859  1
  C  C75  1  0.50000000  0.47554758  0.94210573  1
  C  C76  1  0.50000000  0.52277042  0.06749818  1
  C  C77  1  0.50000000  0.52247960  0.19233910  1
  C  C78  1  0.50000000  0.52221868  0.31680604  1
  C  C79  1  0.50000000  0.52346432  0.44255661  1
  C  C80  1  0.50000000  0.52470773  0.56719994  1
  C  C81  1  0.50000000  0.52494149  0.69158138  1
  C  C82  1  0.50000000  0.52404541  0.81687622  1
  C  C83  1  0.50000000  0.52331855  0.94237233  1
  C  C84  1  0.50000000  0.54667781  0.00514376  1
  C  C85  1  0.50000000  0.54607892  0.12998625  1
  C  C86  1  0.50000000  0.54604349  0.25454536  1
  C  C87  1  0.50000000  0.54553951  0.37910166  1
  C  C88  1  0.50000000  0.54830358  0.50482228  1
  C  C89  1  0.50000000  0.54939897  0.62934066  1
  C  C90  1  0.50000000  0.54845365  0.75447462  1
  C  C91  1  0.50000000  0.54726528  0.87965489  1
  C  C92  1  0.50000000  0.59459635  0.00632325  1
  C  C93  1  0.50000000  0.59410193  0.13044313  1
  C  C94  1  0.50000000  0.59430247  0.25429541  1
  C  C95  1  0.50000000  0.59305893  0.37797064  1
  C  C96  1  0.50000000  0.59692822  0.50367975  1
  C  C97  1  0.50000000  0.59811695  0.62883098  1
  C  C98  1  0.50000000  0.59645643  0.75465796  1
  C  C99  1  0.50000000  0.59505576  0.88003304  1
  C  C100  1  0.50000000  0.61685869  0.06803264  1
  C  C101  1  0.50000000  0.61720883  0.19213394  1
  C  C102  1  0.50000000  0.61671129  0.31663127  1
  C  C103  1  0.50000000  0.61609550  0.43944408  1
  C  C104  1  0.50000000  0.62287706  0.56664257  1
  C  C105  1  0.50000000  0.62128802  0.69281420  1
  C  C106  1  0.50000000  0.61965788  0.81813996  1
  C  C107  1  0.50000000  0.61854099  0.94257757  1
  C  C108  1  0.50000000  0.67219373  0.56951471  1
  C  C109  1  0.50000000  0.66951233  0.69509622  1
  C  C110  1  0.50000000  0.66745506  0.81973404  1
  C  C111  1  0.50000000  0.66511354  0.94209603  1
  C  C112  1  0.50000000  0.70171718  0.51316971  1
  C  C113  1  0.50000000  0.69492740  0.63371455  1
  C  C114  1  0.50000000  0.69229296  0.75845820  1
  C  C115  1  0.50000000  0.69024076  0.88329019  1
  C  C116  1  0.50000000  0.74777893  0.51678688  1
  C  C117  1  0.50000000  0.74340271  0.63746137  1
  C  C118  1  0.50000000  0.74042890  0.76174858  1
  C  C119  1  0.50000000  0.73885646  0.88684237  1
  C  C120  1  0.50000000  0.77038231  0.57806303  1
  C  C121  1  0.50000000  0.76541851  0.70152527  1
  C  C122  1  0.50000000  0.76324268  0.82554618  1
  C  C123  1  0.50000000  0.76237015  0.94850485  1
  C  C124  1  0.50000000  0.81954492  0.58013049  1
  C  C125  1  0.50000000  0.81394497  0.70425929  1
  C  C126  1  0.50000000  0.81134431  0.82789567  1
  C  C127  1  0.50000000  0.80922247  0.95063959  1
  H  H128  1  0.50000000  0.88297428  0.52939481  1
  H  H129  1  0.50000000  0.87602234  0.64889811  1
  H  H130  1  0.50000000  0.87217012  0.76878784  1
  H  H131  1  0.50000000  0.87029304  0.89185374  1
  H  H132  1  0.50000000  0.11694570  0.53677148  1
  H  H133  1  0.50000000  0.12858083  0.63812542  1
  H  H134  1  0.50000000  0.12932708  0.75681236  1
  H  H135  1  0.50000000  0.12898661  0.88050639  1
  H  H136  1  0.50000000  0.83373787  0.47149190  1
  H  H137  1  0.50000000  0.15480163  0.46459516  1
  H  H138  1  0.50000000  0.16971494  0.98789669  1
  H  H139  1  0.50000000  0.20138482  0.06999403  1
  H  H140  1  0.50000000  0.20094686  0.19245952  1
  H  H141  1  0.50000000  0.20131418  0.31783709  1
  H  H142  1  0.50000000  0.20256748  0.43805520  1
  H  H143  1  0.50000000  0.65337033  0.07024917  1
  H  H144  1  0.50000000  0.65390541  0.19197568  1
  H  H145  1  0.50000000  0.65340809  0.31738613  1
  H  H146  1  0.50000000  0.65142116  0.43157543  1
  H  H147  1  0.50000000  0.68270714  0.99011325  1
  H  H148  1  0.50000000  0.69082305  0.46161671  1
  H  H149  1  0.50000000  0.76640355  0.46922991  1
  H  H150  1  0.50000000  0.74431189  0.99648232  1
  H  H151  1  0.50000000  0.82634053  0.99958277  1
