# generated using pymatgen
data_H9C44
_symmetry_space_group_name_H-M   'P 1'
_cell_length_a   10.00000000
_cell_length_b   21.36688000
_cell_length_c   19.75591135
_cell_angle_alpha   90.00000000
_cell_angle_beta   90.00000000
_cell_angle_gamma   90.00000000
_symmetry_Int_Tables_number   1
_chemical_formula_structural   H9C44
_chemical_formula_sum   'H18 C88'
_cell_volume   4221.22187054
_cell_formula_units_Z   2
loop_
 _symmetry_equiv_pos_site_id
 _symmetry_equiv_pos_as_xyz
  1  'x, y, z'
loop_
 _atom_site_type_symbol
 _atom_site_label
 _atom_site_symmetry_multiplicity
 _atom_site_fract_x
 _atom_site_fract_y
 _atom_site_fract_z
 _atom_site_occupancy
  C  C0  1  0.50000014  0.78543459  0.51929925  1
  C  C1  1  0.49999955  0.76728701  0.63536509  1
  C  C2  1  0.49999884  0.76651729  0.75803319  1
  C  C3  1  0.49999901  0.76683351  0.88239692  1
  C  C4  1  0.50000018  0.23285138  0.00645861  1
  C  C5  1  0.50000048  0.23215734  0.13152319  1
  C  C6  1  0.50000036  0.23177964  0.25685923  1
  C  C7  1  0.49999955  0.23190812  0.38229891  1
  C  C8  1  0.49999891  0.23245013  0.50747895  1
  C  C9  1  0.49999994  0.23310369  0.63237273  1
  C  C10  1  0.50000105  0.23350855  0.75703272  1
  C  C11  1  0.50000069  0.23341350  0.88165796  1
  C  C12  1  0.50000034  0.26436929  0.06911265  1
  C  C13  1  0.50000044  0.26374037  0.19426009  1
  C  C14  1  0.49999999  0.26357148  0.31954935  1
  C  C15  1  0.49999908  0.26404831  0.44477673  1
  C  C16  1  0.49999897  0.26475503  0.56978074  1
  C  C17  1  0.50000084  0.26536029  0.69458455  1
  C  C18  1  0.50000124  0.26552780  0.81934103  1
  C  C19  1  0.50000046  0.26510101  0.94415472  1
  C  C20  1  0.50000035  0.33203517  0.06913507  1
  C  C21  1  0.50000026  0.33142389  0.19424123  1
  C  C22  1  0.50000002  0.33129601  0.31947931  1
  C  C23  1  0.49999950  0.33176821  0.44463008  1
  C  C24  1  0.49999936  0.33250365  0.56956731  1
  C  C25  1  0.50000081  0.33310509  0.69439353  1
  C  C26  1  0.50000119  0.33322279  0.81923425  1
  C  C27  1  0.50000055  0.33274885  0.94415284  1
  C  C28  1  0.50000041  0.36548929  0.00675412  1
  C  C29  1  0.50000030  0.36474328  0.13174484  1
  C  C30  1  0.50000012  0.36427564  0.25682753  1
  C  C31  1  0.50000000  0.36455052  0.38198546  1
  C  C32  1  0.49999980  0.36529705  0.50697559  1
  C  C33  1  0.50000021  0.36605913  0.63181986  1
  C  C34  1  0.50000095  0.36641997  0.75671876  1
  C  C35  1  0.50000075  0.36612268  0.88176253  1
  C  C36  1  0.50000049  0.43263319  0.00671749  1
  C  C37  1  0.50000030  0.43184555  0.13166426  1
  C  C38  1  0.50000012  0.43130413  0.25669514  1
  C  C39  1  0.50000036  0.43169492  0.38191125  1
  C  C40  1  0.50000065  0.43252077  0.50693024  1
  C  C41  1  0.50000061  0.43334416  0.63165948  1
  C  C42  1  0.50000051  0.43366113  0.75652754  1
  C  C43  1  0.50000044  0.43327440  0.88172769  1
  C  C44  1  0.50000045  0.46543162  0.06928416  1
  C  C45  1  0.50000015  0.46461816  0.19429212  1
  C  C46  1  0.50000021  0.46439780  0.31916086  1
  C  C47  1  0.50000069  0.46534717  0.44432281  1
  C  C48  1  0.50000095  0.46641872  0.56911149  1
  C  C49  1  0.50000048  0.46705190  0.69390140  1
  C  C50  1  0.50000029  0.46663359  0.81921302  1
  C  C51  1  0.50000044  0.46629998  0.94431708  1
  C  C52  1  0.50000020  0.53259281  0.06932501  1
  C  C53  1  0.49999995  0.53161903  0.19429076  1
  C  C54  1  0.50000002  0.53126077  0.31887262  1
  C  C55  1  0.50000059  0.53244809  0.44413102  1
  C  C56  1  0.50000090  0.53377968  0.56883500  1
  C  C57  1  0.50000017  0.53435538  0.69362112  1
  C  C58  1  0.49999991  0.53372679  0.81929194  1
  C  C59  1  0.50000022  0.53343932  0.94440381  1
  C  C60  1  0.50000006  0.56645146  0.00698443  1
  C  C61  1  0.49999985  0.56499620  0.13197755  1
  C  C62  1  0.49999981  0.56456263  0.25658648  1
  C  C63  1  0.50000012  0.56428619  0.38114113  1
  C  C64  1  0.50000062  0.56669772  0.50644918  1
  C  C65  1  0.50000026  0.56789946  0.63092972  1
  C  C66  1  0.49999965  0.56690453  0.75659671  1
  C  C67  1  0.49999980  0.56683644  0.88187227  1
  C  C68  1  0.49999952  0.63398890  0.00781132  1
  C  C69  1  0.49999940  0.63238571  0.13242768  1
  C  C70  1  0.49999965  0.63216282  0.25654936  1
  C  C71  1  0.50000004  0.63133181  0.38048841  1
  C  C72  1  0.50000030  0.63454424  0.50562265  1
  C  C73  1  0.49999969  0.63565273  0.63012838  1
  C  C74  1  0.49999895  0.63386628  0.75647410  1
  C  C75  1  0.49999925  0.63415583  0.88207696  1
  C  C76  1  0.49999919  0.66474178  0.07015680  1
  C  C77  1  0.49999935  0.66439877  0.19446749  1
  C  C78  1  0.49999991  0.66389213  0.31879416  1
  C  C79  1  0.50000021  0.66365673  0.44231144  1
  C  C80  1  0.50000007  0.67000245  0.56785663  1
  C  C81  1  0.49999886  0.66698034  0.69435974  1
  C  C82  1  0.49999865  0.66710894  0.81937609  1
  C  C83  1  0.49999925  0.66793450  0.94434788  1
  C  C84  1  0.50000000  0.73955219  0.56993441  1
  C  C85  1  0.49999880  0.73421883  0.69586885  1
  C  C86  1  0.49999856  0.73439443  0.81943965  1
  C  C87  1  0.49999920  0.73463069  0.94245950  1
  H  H88  1  0.50000000  0.83425424  0.53659934  1
  H  H89  1  0.49999968  0.81853097  0.63796561  1
  H  H90  1  0.49999928  0.81786762  0.75766212  1
  H  H91  1  0.49999937  0.81814835  0.88168721  1
  H  H92  1  0.49999997  0.18154887  0.00609553  1
  H  H93  1  0.50000051  0.18082893  0.13110134  1
  H  H94  1  0.50000038  0.18044064  0.25672759  1
  H  H95  1  0.49999967  0.18055821  0.38257293  1
  H  H96  1  0.49999927  0.18111645  0.50796939  1
  H  H97  1  0.50000011  0.18177410  0.63291929  1
  H  H98  1  0.50000075  0.18219642  0.75730243  1
  H  H99  1  0.50000049  0.18211140  0.88154419  1
  H  H100  1  0.50000013  0.78061851  0.46463160  1
  H  H101  1  0.49999883  0.71585387  0.07250241  1
  H  H102  1  0.49999902  0.71572843  0.19490607  1
  H  H103  1  0.50000003  0.71523497  0.31899174  1
  H  H104  1  0.50000011  0.71390905  0.43855676  1
  H  H105  1  0.49999964  0.76136570  0.98965482  1
