# generated using pymatgen
data_H5C24
_symmetry_space_group_name_H-M   'P 1'
_cell_length_a   10.00000000
_cell_length_b   25.62946000
_cell_length_c   19.76751436
_cell_angle_alpha   90.00000000
_cell_angle_beta   90.00000000
_cell_angle_gamma   90.00000000
_symmetry_Int_Tables_number   1
_chemical_formula_structural   H5C24
_chemical_formula_sum   'H20 C96'
_cell_volume   5066.30718661
_cell_formula_units_Z   4
loop_
 _symmetry_equiv_pos_site_id
 _symmetry_equiv_pos_as_xyz
  1  'x, y, z'
loop_
 _atom_site_type_symbol
 _atom_site_label
 _atom_site_symmetry_multiplicity
 _atom_site_fract_x
 _atom_site_fract_y
 _atom_site_fract_z
 _atom_site_occupancy
  C  C0  1  0.49999898  0.23253411  0.50555814  1
  C  C1  1  0.49999878  0.23565572  0.62755016  1
  C  C2  1  0.49999943  0.23407812  0.75010080  1
  C  C3  1  0.50000065  0.22724992  0.87162679  1
  C  C4  1  0.49999913  0.26172450  0.56452932  1
  C  C5  1  0.49999944  0.26207896  0.68963644  1
  C  C6  1  0.50000044  0.25893987  0.81316491  1
  C  C7  1  0.50000036  0.25129953  0.93375423  1
  C  C8  1  0.49999981  0.31927079  0.56712468  1
  C  C9  1  0.50000044  0.31838800  0.69258768  1
  C  C10  1  0.50000070  0.31537527  0.81762568  1
  C  C11  1  0.49999988  0.30573230  0.93847994  1
  C  C12  1  0.49999958  0.34835072  0.50814004  1
  C  C13  1  0.50000059  0.34641980  0.63071584  1
  C  C14  1  0.50000101  0.34470417  0.75594215  1
  C  C15  1  0.50000030  0.34083932  0.88248899  1
  C  C16  1  0.50000005  0.40678884  0.01141334  1
  C  C17  1  0.49999936  0.40628867  0.13413785  1
  C  C18  1  0.49999937  0.40590092  0.25834847  1
  C  C19  1  0.49999995  0.40569733  0.38214081  1
  C  C20  1  0.50000026  0.40302881  0.50763396  1
  C  C21  1  0.50000101  0.40212071  0.63220243  1
  C  C22  1  0.50000095  0.40071526  0.75793947  1
  C  C23  1  0.50000020  0.39867846  0.88469243  1
  C  C24  1  0.49999981  0.43383309  0.07284161  1
  C  C25  1  0.49999962  0.43264862  0.19631050  1
  C  C26  1  0.49999984  0.43270557  0.32005162  1
  C  C27  1  0.50000012  0.43134943  0.44413527  1
  C  C28  1  0.50000064  0.43054734  0.57008137  1
  C  C29  1  0.50000075  0.42917738  0.69582421  1
  C  C30  1  0.50000034  0.42736261  0.82227689  1
  C  C31  1  0.50000003  0.42920415  0.94717325  1
  C  C32  1  0.50000003  0.48935115  0.07184119  1
  C  C33  1  0.50000024  0.48900882  0.19618666  1
  C  C34  1  0.50000019  0.48878485  0.32055440  1
  C  C35  1  0.50000002  0.48738406  0.44531248  1
  C  C36  1  0.49999995  0.48638362  0.57062237  1
  C  C37  1  0.49999972  0.48514991  0.69597376  1
  C  C38  1  0.49999960  0.48419176  0.82157736  1
  C  C39  1  0.49999970  0.48587737  0.94609014  1
  C  C40  1  0.49999980  0.51496320  0.00833315  1
  C  C41  1  0.50000024  0.51682583  0.13402018  1
  C  C42  1  0.50000033  0.51656489  0.25833966  1
  C  C43  1  0.50000005  0.51571305  0.38311157  1
  C  C44  1  0.49999967  0.51449952  0.50808451  1
  C  C45  1  0.49999933  0.51342226  0.63344482  1
  C  C46  1  0.49999924  0.51240947  0.75900598  1
  C  C47  1  0.49999924  0.51308945  0.88365126  1
  C  C48  1  0.49999951  0.57088334  0.00824011  1
  C  C49  1  0.50000002  0.57241945  0.13363801  1
  C  C50  1  0.50000007  0.57237747  0.25837124  1
  C  C51  1  0.49999982  0.57160769  0.38330337  1
  C  C52  1  0.49999929  0.57039251  0.50828921  1
  C  C53  1  0.49999901  0.56940160  0.63350136  1
  C  C54  1  0.49999908  0.56867863  0.75872291  1
  C  C55  1  0.49999907  0.56935223  0.88346985  1
  C  C56  1  0.49999966  0.59918923  0.07062355  1
  C  C57  1  0.49999985  0.60009997  0.19599686  1
  C  C58  1  0.49999980  0.59966664  0.32099353  1
  C  C59  1  0.49999965  0.59871302  0.44598673  1
  C  C60  1  0.49999932  0.59756488  0.57108879  1
  C  C61  1  0.49999929  0.59670560  0.69622529  1
  C  C62  1  0.49999934  0.59684818  0.82091099  1
  C  C63  1  0.49999939  0.59788206  0.94558203  1
  C  C64  1  0.49999967  0.65511352  0.07056691  1
  C  C65  1  0.49999956  0.65590309  0.19586386  1
  C  C66  1  0.49999975  0.65559525  0.32099159  1
  C  C67  1  0.50000014  0.65469833  0.44600958  1
  C  C68  1  0.50000026  0.65360103  0.57103304  1
  C  C69  1  0.50000015  0.65282874  0.69600918  1
  C  C70  1  0.50000010  0.65299013  0.82082127  1
  C  C71  1  0.49999997  0.65390205  0.94556472  1
  C  C72  1  0.50000004  0.68209542  0.00778553  1
  C  C73  1  0.49999966  0.68303751  0.13302712  1
  C  C74  1  0.49999968  0.68334805  0.25848474  1
  C  C75  1  0.50000016  0.68277778  0.38369328  1
  C  C76  1  0.50000071  0.68173741  0.50876907  1
  C  C77  1  0.50000063  0.68079411  0.63366663  1
  C  C78  1  0.50000036  0.68050808  0.75836769  1
  C  C79  1  0.50000056  0.68107035  0.88298702  1
  C  C80  1  0.50000044  0.73851630  0.00762763  1
  C  C81  1  0.50000026  0.73946091  0.13292142  1
  C  C82  1  0.50000022  0.73978260  0.25849246  1
  C  C83  1  0.50000056  0.73919580  0.38387933  1
  C  C84  1  0.50000122  0.73815545  0.50898260  1
  C  C85  1  0.50000102  0.73723745  0.63376772  1
  C  C86  1  0.50000049  0.73701485  0.75829709  1
  C  C87  1  0.50000070  0.73752622  0.88281967  1
  C  C88  1  0.50000066  0.76556638  0.06996962  1
  C  C89  1  0.50000055  0.76618373  0.19562534  1
  C  C90  1  0.50000059  0.76607327  0.32137345  1
  C  C91  1  0.50000085  0.76525780  0.44675105  1
  C  C92  1  0.50000124  0.76430064  0.57166768  1
  C  C93  1  0.50000067  0.76377617  0.69611131  1
  C  C94  1  0.50000030  0.76394698  0.82038717  1
  C  C95  1  0.50000037  0.76465769  0.94491177  1
  H  H96  1  0.49999868  0.18982238  0.50910329  1
  H  H97  1  0.49999807  0.19286490  0.62812340  1
  H  H98  1  0.49999889  0.19133384  0.74850464  1
  H  H99  1  0.50000052  0.18472834  0.86613069  1
  H  H100  1  0.50000114  0.80838860  0.06927516  1
  H  H101  1  0.50000114  0.80900610  0.19548084  1
  H  H102  1  0.50000072  0.80888015  0.32189312  1
  H  H103  1  0.50000062  0.80804380  0.44750444  1
  H  H104  1  0.50000129  0.80707879  0.57236020  1
  H  H105  1  0.50000066  0.80657918  0.69618836  1
  H  H106  1  0.49999970  0.80676339  0.81999366  1
  H  H107  1  0.49999970  0.80745672  0.94420934  1
  H  H108  1  0.49999969  0.24924037  0.45464658  1
  H  H109  1  0.50000015  0.22855156  0.98070162  1
  H  H110  1  0.49999890  0.31775930  0.99057548  1
  H  H111  1  0.49999893  0.32753465  0.46008940  1
  H  H112  1  0.50000054  0.36550052  0.01857586  1
  H  H113  1  0.49999886  0.36347335  0.13340165  1
  H  H114  1  0.49999892  0.36313839  0.25842099  1
  H  H115  1  0.49999997  0.36310971  0.37938614  1
