# generated using pymatgen
data_H7C24
_symmetry_space_group_name_H-M   'P 1'
_cell_length_a   10.00000000
_cell_length_b   29.89204000
_cell_length_c   19.86593570
_cell_angle_alpha   90.00000000
_cell_angle_beta   90.00000000
_cell_angle_gamma   90.00000000
_symmetry_Int_Tables_number   1
_chemical_formula_structural   H7C24
_chemical_formula_sum   'H28 C96'
_cell_volume   5938.33344626
_cell_formula_units_Z   4
loop_
 _symmetry_equiv_pos_site_id
 _symmetry_equiv_pos_as_xyz
  1  'x, y, z'
loop_
 _atom_site_type_symbol
 _atom_site_label
 _atom_site_symmetry_multiplicity
 _atom_site_fract_x
 _atom_site_fract_y
 _atom_site_fract_z
 _atom_site_occupancy
  C  C0  1  0.50000063  0.18869922  0.55285946  1
  C  C1  1  0.49999997  0.19629363  0.67409522  1
  C  C2  1  0.49999969  0.20068709  0.79608369  1
  C  C3  1  0.49999981  0.20313960  0.91977202  1
  C  C4  1  0.50000033  0.21592437  0.60932514  1
  C  C5  1  0.49999981  0.22199073  0.73309751  1
  C  C6  1  0.49999978  0.22504195  0.85637957  1
  C  C7  1  0.49999980  0.22798678  0.97863557  1
  C  C8  1  0.50000029  0.26509344  0.60679060  1
  C  C9  1  0.49999994  0.27052311  0.72990297  1
  C  C10  1  0.49999988  0.27315624  0.85338487  1
  C  C11  1  0.49999962  0.27482114  0.97583173  1
  C  C12  1  0.50000048  0.28748878  0.54554669  1
  C  C13  1  0.50000009  0.29227846  0.66583545  1
  C  C14  1  0.49999996  0.29578876  0.78961158  1
  C  C15  1  0.49999976  0.29789080  0.91407672  1
  C  C16  1  0.50000050  0.33353217  0.54187616  1
  C  C17  1  0.50000011  0.34082823  0.66193044  1
  C  C18  1  0.49999997  0.34402231  0.78600620  1
  C  C19  1  0.49999980  0.34647309  0.90992476  1
  C  C20  1  0.50000025  0.36316386  0.59775879  1
  C  C21  1  0.50000002  0.36663833  0.72286902  1
  C  C22  1  0.49999991  0.36919596  0.84662730  1
  C  C23  1  0.49999975  0.37160861  0.96818375  1
  C  C24  1  0.50000008  0.41844620  0.09365283  1
  C  C25  1  0.49999999  0.41682899  0.21848574  1
  C  C26  1  0.49999998  0.41737936  0.34304342  1
  C  C27  1  0.50000002  0.41837147  0.46614040  1
  C  C28  1  0.50000011  0.41245624  0.59404814  1
  C  C29  1  0.50000006  0.41490732  0.72025575  1
  C  C30  1  0.49999993  0.41709682  0.84486018  1
  C  C31  1  0.49999987  0.41815739  0.96857152  1
  C  C32  1  0.50000004  0.44141109  0.03248051  1
  C  C33  1  0.50000006  0.44004138  0.15698593  1
  C  C34  1  0.49999997  0.43971570  0.28063185  1
  C  C35  1  0.49999996  0.44104353  0.40423589  1
  C  C36  1  0.50000003  0.43769366  0.53033576  1
  C  C37  1  0.50000008  0.43747924  0.65582887  1
  C  C38  1  0.50000002  0.44020869  0.78163804  1
  C  C39  1  0.49999991  0.44189008  0.90648603  1
  C  C40  1  0.50000006  0.48939356  0.03153683  1
  C  C41  1  0.50000009  0.48808962  0.15716431  1
  C  C42  1  0.49999996  0.48814605  0.28086128  1
  C  C43  1  0.49999991  0.48867327  0.40495364  1
  C  C44  1  0.49999999  0.48631822  0.53108810  1
  C  C45  1  0.50000004  0.48629598  0.65615961  1
  C  C46  1  0.50000000  0.48865734  0.78168306  1
  C  C47  1  0.49999997  0.48999804  0.90634145  1
  C  C48  1  0.50000009  0.51132183  0.09505380  1
  C  C49  1  0.50000004  0.51184851  0.21914753  1
  C  C50  1  0.49999991  0.51190623  0.34284399  1
  C  C51  1  0.49999994  0.51060076  0.46847065  1
  C  C52  1  0.50000003  0.51000109  0.59366518  1
  C  C53  1  0.50000000  0.51134616  0.71832528  1
  C  C54  1  0.49999996  0.51370741  0.84384894  1
  C  C55  1  0.50000001  0.51367776  0.96891927  1
  C  C56  1  0.50000004  0.55895213  0.09577377  1
  C  C57  1  0.50000003  0.56027812  0.21937875  1
  C  C58  1  0.49999994  0.55995520  0.34302418  1
  C  C59  1  0.49999996  0.55858195  0.46753034  1
  C  C60  1  0.50000009  0.55810929  0.59352248  1
  C  C61  1  0.49999998  0.55979505  0.71837088  1
  C  C62  1  0.49999992  0.56252498  0.84417922  1
  C  C63  1  0.49999997  0.56230373  0.96967186  1
  C  C64  1  0.49999997  0.58162405  0.03386754  1
  C  C65  1  0.50000002  0.58261494  0.15696839  1
  C  C66  1  0.50000001  0.58316563  0.28152419  1
  C  C67  1  0.49999992  0.58154809  0.40635987  1
  C  C68  1  0.50000012  0.58183974  0.53143586  1
  C  C69  1  0.50000007  0.58290388  0.65514739  1
  C  C70  1  0.49999994  0.58509778  0.77975303  1
  C  C71  1  0.49999989  0.58754706  0.90596144  1
  C  C72  1  0.50000025  0.62838825  0.53182077  1
  C  C73  1  0.50000009  0.63080450  0.65337840  1
  C  C74  1  0.49999998  0.63336673  0.77713760  1
  C  C75  1  0.49999975  0.63684257  0.90225277  1
  C  C76  1  0.50000020  0.65352366  0.59007885  1
  C  C77  1  0.50000004  0.65598133  0.71399821  1
  C  C78  1  0.49999989  0.65917838  0.83807727  1
  C  C79  1  0.49999951  0.66647478  0.95813903  1
  C  C80  1  0.50000024  0.70210327  0.58591204  1
  C  C81  1  0.50000004  0.70421457  0.71038402  1
  C  C82  1  0.49999991  0.70772971  0.83416407  1
  C  C83  1  0.49999953  0.71252016  0.95446030  1
  C  C84  1  0.50000039  0.72516342  0.52414615  1
  C  C85  1  0.50000012  0.72684143  0.64660292  1
  C  C86  1  0.50000006  0.72948384  0.77009150  1
  C  C87  1  0.49999971  0.73491366  0.89321042  1
  C  C88  1  0.50000021  0.77199702  0.52134626  1
  C  C89  1  0.50000022  0.77495466  0.64360389  1
  C  C90  1  0.50000019  0.77801727  0.76688636  1
  C  C91  1  0.49999967  0.78408287  0.89065835  1
  C  C92  1  0.50000019  0.79684763  0.58020601  1
  C  C93  1  0.50000032  0.79931701  0.70389381  1
  C  C94  1  0.50000003  0.80371520  0.82588607  1
  C  C95  1  0.49999935  0.81131522  0.94711394  1
  H  H96  1  0.50000062  0.15226146  0.55924271  1
  H  H97  1  0.49999991  0.15969858  0.67834670  1
  H  H98  1  0.49999954  0.16404596  0.79815281  1
  H  H99  1  0.49999975  0.16647764  0.92104402  1
  H  H100  1  0.50000025  0.83350864  0.57892276  1
  H  H101  1  0.50000046  0.83595863  0.70180478  1
  H  H102  1  0.50000009  0.84031189  0.82164108  1
  H  H103  1  0.49999937  0.84775174  0.94072024  1
  H  H104  1  0.50000075  0.20123364  0.50117552  1
  H  H105  1  0.50000051  0.26891204  0.49804740  1
  H  H106  1  0.50000051  0.34441914  0.49055987  1
  H  H107  1  0.50000007  0.38188955  0.09444313  1
  H  H108  1  0.49999994  0.38013926  0.21847266  1
  H  H109  1  0.49999995  0.38066305  0.34370056  1
  H  H110  1  0.50000016  0.38300936  0.45845726  1
  H  H111  1  0.49999982  0.61698646  0.04155398  1
  H  H112  1  0.50000004  0.61933167  0.15632543  1
  H  H113  1  0.50000005  0.61985525  0.28153132  1
  H  H114  1  0.49999992  0.61810462  0.40559943  1
  H  H115  1  0.50000025  0.64589224  0.48396258  1
  H  H116  1  0.50000065  0.70676949  0.47661057  1
  H  H117  1  0.50000011  0.78859740  0.47217567  1
  H  H118  1  0.49999990  0.21138864  0.02780717  1
  H  H119  1  0.49999937  0.29322025  0.02335620  1
  H  H120  1  0.49999974  0.35411372  0.01605025  1
  H  H121  1  0.49999952  0.65558967  0.00946360  1
  H  H122  1  0.49999950  0.73109413  0.00196516  1
  H  H123  1  0.49999922  0.79878145  -0.00120007  1
