# generated using pymatgen
data_H5C28
_symmetry_space_group_name_H-M   'P 1'
_cell_length_a   10.00000000
_cell_length_b   25.62946000
_cell_length_c   19.76928586
_cell_angle_alpha   90.00000000
_cell_angle_beta   90.00000000
_cell_angle_gamma   90.00000000
_symmetry_Int_Tables_number   1
_chemical_formula_structural   H5C28
_chemical_formula_sum   'H20 C112'
_cell_volume   5066.76121165
_cell_formula_units_Z   4
loop_
 _symmetry_equiv_pos_site_id
 _symmetry_equiv_pos_as_xyz
  1  'x, y, z'
loop_
 _atom_site_type_symbol
 _atom_site_label
 _atom_site_symmetry_multiplicity
 _atom_site_fract_x
 _atom_site_fract_y
 _atom_site_fract_z
 _atom_site_occupancy
  C  C0  1  0.50000000  0.80913789  0.50509333  1
  C  C1  1  0.50000000  0.80619248  0.62714443  1
  C  C2  1  0.50000000  0.80783404  0.74972545  1
  C  C3  1  0.50000000  0.81463487  0.87129627  1
  C  C4  1  0.50000000  0.19337175  0.00761150  1
  C  C5  1  0.50000000  0.19284084  0.13276864  1
  C  C6  1  0.50000000  0.19260222  0.25824497  1
  C  C7  1  0.50000000  0.19283332  0.38369644  1
  C  C8  1  0.50000000  0.19341362  0.50886254  1
  C  C9  1  0.50000000  0.19393455  0.63363765  1
  C  C10  1  0.50000000  0.19411518  0.75821774  1
  C  C11  1  0.50000000  0.19388671  0.88282283  1
  C  C12  1  0.50000000  0.21965568  0.07030469  1
  C  C13  1  0.50000000  0.21915168  0.19555587  1
  C  C14  1  0.50000000  0.21917053  0.32092021  1
  C  C15  1  0.50000000  0.21967316  0.44614558  1
  C  C16  1  0.50000000  0.22036482  0.57112732  1
  C  C17  1  0.50000000  0.22076827  0.69588495  1
  C  C18  1  0.50000000  0.22072740  0.82057177  1
  C  C19  1  0.50000000  0.22029944  0.94533287  1
  C  C20  1  0.50000000  0.27607380  0.07036523  1
  C  C21  1  0.50000000  0.27559124  0.19559017  1
  C  C22  1  0.50000000  0.27560928  0.32087115  1
  C  C23  1  0.50000000  0.27610497  0.44602302  1
  C  C24  1  0.50000000  0.27680694  0.57101431  1
  C  C25  1  0.50000000  0.27724298  0.69583511  1
  C  C26  1  0.50000000  0.27719195  0.82058614  1
  C  C27  1  0.50000000  0.27671876  0.94538074  1
  C  C28  1  0.50000000  0.30399856  0.00795924  1
  C  C29  1  0.50000000  0.30333139  0.13304971  1
  C  C30  1  0.50000000  0.30308463  0.25824681  1
  C  C31  1  0.50000000  0.30340002  0.38336783  1
  C  C32  1  0.50000000  0.30409153  0.50840198  1
  C  C33  1  0.50000000  0.30477504  0.63334873  1
  C  C34  1  0.50000000  0.30498486  0.75823520  1
  C  C35  1  0.50000000  0.30466214  0.88306797  1
  C  C36  1  0.50000000  0.35995025  0.00786772  1
  C  C37  1  0.50000000  0.35921119  0.13302577  1
  C  C38  1  0.50000000  0.35894401  0.25829556  1
  C  C39  1  0.50000000  0.35933693  0.38341952  1
  C  C40  1  0.50000000  0.36007257  0.50849451  1
  C  C41  1  0.50000000  0.36082503  0.63348452  1
  C  C42  1  0.50000000  0.36103292  0.75830970  1
  C  C43  1  0.50000000  0.36067859  0.88302287  1
  C  C44  1  0.50000000  0.38719961  0.07054275  1
  C  C45  1  0.50000000  0.38652076  0.19575260  1
  C  C46  1  0.50000000  0.38674283  0.32080245  1
  C  C47  1  0.50000000  0.38739908  0.44583562  1
  C  C48  1  0.50000000  0.38825991  0.57088574  1
  C  C49  1  0.50000000  0.38888641  0.69594925  1
  C  C50  1  0.50000000  0.38881915  0.82074177  1
  C  C51  1  0.50000000  0.38816262  0.94552215  1
  C  C52  1  0.50000000  0.44300126  0.07053323  1
  C  C53  1  0.50000000  0.44218501  0.19588356  1
  C  C54  1  0.50000000  0.44250917  0.32083143  1
  C  C55  1  0.50000000  0.44321592  0.44586630  1
  C  C56  1  0.50000000  0.44417258  0.57103076  1
  C  C57  1  0.50000000  0.44490494  0.69617358  1
  C  C58  1  0.50000000  0.44489676  0.82084844  1
  C  C59  1  0.50000000  0.44411716  0.94545584  1
  C  C60  1  0.50000000  0.47125520  0.00809435  1
  C  C61  1  0.50000000  0.46986699  0.13353774  1
  C  C62  1  0.50000000  0.46989807  0.25825272  1
  C  C63  1  0.50000000  0.47044484  0.38323192  1
  C  C64  1  0.50000000  0.47144674  0.50824511  1
  C  C65  1  0.50000000  0.47234211  0.63349511  1
  C  C66  1  0.50000000  0.47308464  0.75864976  1
  C  C67  1  0.50000000  0.47260355  0.88334739  1
  C  C68  1  0.50000000  0.52713833  0.00824843  1
  C  C69  1  0.50000000  0.52541213  0.13395729  1
  C  C70  1  0.50000000  0.52562088  0.25824956  1
  C  C71  1  0.50000000  0.52624014  0.38306652  1
  C  C72  1  0.50000000  0.52721678  0.50805162  1
  C  C73  1  0.50000000  0.52827664  0.63347514  1
  C  C74  1  0.50000000  0.52937508  0.75900610  1
  C  C75  1  0.50000000  0.52880414  0.88360725  1
  C  C76  1  0.50000000  0.55281821  0.07174536  1
  C  C77  1  0.50000000  0.55322712  0.19612273  1
  C  C78  1  0.50000000  0.55325276  0.32055784  1
  C  C79  1  0.50000000  0.55441846  0.44531879  1
  C  C80  1  0.50000000  0.55529862  0.57059734  1
  C  C81  1  0.50000000  0.55661569  0.69595440  1
  C  C82  1  0.50000000  0.55767938  0.82151705  1
  C  C83  1  0.50000000  0.55614618  0.94600030  1
  C  C84  1  0.50000000  0.60830779  0.07275543  1
  C  C85  1  0.50000000  0.60955713  0.19627092  1
  C  C86  1  0.50000000  0.60925605  0.32008429  1
  C  C87  1  0.50000000  0.61040626  0.44415450  1
  C  C88  1  0.50000000  0.61111508  0.57009431  1
  C  C89  1  0.50000000  0.61256443  0.69576708  1
  C  C90  1  0.50000000  0.61444977  0.82219391  1
  C  C91  1  0.50000000  0.61277984  0.94704807  1
  C  C92  1  0.50000000  0.63521591  0.01128811  1
  C  C93  1  0.50000000  0.63591137  0.13405861  1
  C  C94  1  0.50000000  0.63616531  0.25843001  1
  C  C95  1  0.50000000  0.63614416  0.38222760  1
  C  C96  1  0.50000000  0.63867148  0.50767511  1
  C  C97  1  0.50000000  0.63961589  0.63213144  1
  C  C98  1  0.50000000  0.64109865  0.75786153  1
  C  C99  1  0.50000000  0.64324676  0.88453708  1
  C  C100  1  0.50000000  0.69333427  0.50810279  1
  C  C101  1  0.50000000  0.69534873  0.63056077  1
  C  C102  1  0.50000000  0.69714101  0.75571657  1
  C  C103  1  0.50000000  0.70105717  0.88220157  1
  C  C104  1  0.50000000  0.72249626  0.56697916  1
  C  C105  1  0.50000000  0.72343229  0.69239205  1
  C  C106  1  0.50000000  0.72651080  0.81734224  1
  C  C107  1  0.50000000  0.73617265  0.93815375  1
  C  C108  1  0.50000000  0.78004492  0.56417520  1
  C  C109  1  0.50000000  0.77976583  0.68930377  1
  C  C110  1  0.50000000  0.78297631  0.81282489  1
  C  C111  1  0.50000000  0.79059852  0.93342732  1
  H  H112  1  0.50000000  0.85184834  0.50845212  1
  H  H113  1  0.50000000  0.84898303  0.62747237  1
  H  H114  1  0.50000000  0.85057721  0.74799038  1
  H  H115  1  0.50000000  0.85716055  0.86597233  1
  H  H116  1  0.50000000  0.15057704  0.00710374  1
  H  H117  1  0.50000000  0.15004475  0.13248333  1
  H  H118  1  0.50000000  0.14980251  0.25830908  1
  H  H119  1  0.50000000  0.15003014  0.38408028  1
  H  H120  1  0.50000000  0.15062026  0.50934624  1
  H  H121  1  0.50000000  0.15113995  0.63398206  1
  H  H122  1  0.50000000  0.15132204  0.75817187  1
  H  H123  1  0.50000000  0.15109333  0.88254042  1
  H  H124  1  0.50000000  0.79238092  0.45422349  1
  H  H125  1  0.50000000  0.67648761  0.01852252  1
  H  H126  1  0.50000000  0.67872023  0.13311791  1
  H  H127  1  0.50000000  0.67891858  0.25879034  1
  H  H128  1  0.50000000  0.67871651  0.37955727  1
  H  H129  1  0.50000000  0.71399008  0.45998240  1
  H  H130  1  0.50000000  0.72402999  0.99015951  1
  H  H131  1  0.50000000  0.81342432  0.98031389  1
