# generated using pymatgen
data_H7C24
_symmetry_space_group_name_H-M   'P 1'
_cell_length_a   10.00000000
_cell_length_b   29.89204000
_cell_length_c   19.87567271
_cell_angle_alpha   90.00000000
_cell_angle_beta   90.00000000
_cell_angle_gamma   90.00000000
_symmetry_Int_Tables_number   1
_chemical_formula_structural   H7C24
_chemical_formula_sum   'H28 C96'
_cell_volume   5941.24403634
_cell_formula_units_Z   4
loop_
 _symmetry_equiv_pos_site_id
 _symmetry_equiv_pos_as_xyz
  1  'x, y, z'
loop_
 _atom_site_type_symbol
 _atom_site_label
 _atom_site_symmetry_multiplicity
 _atom_site_fract_x
 _atom_site_fract_y
 _atom_site_fract_z
 _atom_site_occupancy
  C  C0  1  0.50000000  0.20113000  0.49928305  1
  C  C1  1  0.50000000  0.20217151  0.62107340  1
  C  C2  1  0.50000000  0.20030033  0.74258571  1
  C  C3  1  0.50000000  0.19382949  0.86293443  1
  C  C4  1  0.50000000  0.22499427  0.55897709  1
  C  C5  1  0.50000000  0.22465074  0.68291700  1
  C  C6  1  0.50000000  0.22142371  0.80538661  1
  C  C7  1  0.50000000  0.21393305  0.92504548  1
  C  C8  1  0.50000000  0.27422026  0.56281296  1
  C  C9  1  0.50000000  0.27302532  0.68674178  1
  C  C10  1  0.50000000  0.26983369  0.81052991  1
  C  C11  1  0.50000000  0.26055561  0.93040848  1
  C  C12  1  0.50000000  0.29905430  0.50456394  1
  C  C13  1  0.50000000  0.29750222  0.62588762  1
  C  C14  1  0.50000000  0.29545852  0.74973904  1
  C  C15  1  0.50000000  0.29106160  0.87534562  1
  C  C16  1  0.50000000  0.34591421  0.00611388  1
  C  C17  1  0.50000000  0.34461290  0.12944696  1
  C  C18  1  0.50000000  0.34415670  0.25439091  1
  C  C19  1  0.50000000  0.34598608  0.37915441  1
  C  C20  1  0.50000000  0.34583001  0.50418249  1
  C  C21  1  0.50000000  0.34537292  0.62767570  1
  C  C22  1  0.50000000  0.34356188  0.75236430  1
  C  C23  1  0.50000000  0.34057442  0.87872665  1
  C  C24  1  0.50000000  0.36834309  0.06824184  1
  C  C25  1  0.50000000  0.36681983  0.19206100  1
  C  C26  1  0.50000000  0.36750391  0.31586696  1
  C  C27  1  0.50000000  0.36902195  0.44040800  1
  C  C28  1  0.50000000  0.36988057  0.56604496  1
  C  C29  1  0.50000000  0.36856790  0.69094963  1
  C  C30  1  0.50000000  0.36571767  0.81702484  1
  C  C31  1  0.50000000  0.36570159  0.94221866  1
  C  C32  1  0.50000000  0.41605111  0.06774414  1
  C  C33  1  0.50000000  0.41529669  0.19200743  1
  C  C34  1  0.50000000  0.41551187  0.31579530  1
  C  C35  1  0.50000000  0.41703846  0.44141745  1
  C  C36  1  0.50000000  0.41800114  0.56648803  1
  C  C37  1  0.50000000  0.41691897  0.69123751  1
  C  C38  1  0.50000000  0.41447831  0.81686576  1
  C  C39  1  0.50000000  0.41428997  0.94179853  1
  C  C40  1  0.50000000  0.43833477  0.00452269  1
  C  C41  1  0.50000000  0.43906631  0.13003614  1
  C  C42  1  0.50000000  0.43912096  0.25369122  1
  C  C43  1  0.50000000  0.43881771  0.37785107  1
  C  C44  1  0.50000000  0.44153812  0.50399123  1
  C  C45  1  0.50000000  0.44174916  0.62914802  1
  C  C46  1  0.50000000  0.43949193  0.75472427  1
  C  C47  1  0.50000000  0.43813372  0.87936915  1
  C  C48  1  0.50000000  0.48637370  0.00562080  1
  C  C49  1  0.50000000  0.48707286  0.12999475  1
  C  C50  1  0.50000000  0.48757944  0.25348597  1
  C  C51  1  0.50000000  0.48644886  0.37707615  1
  C  C52  1  0.50000000  0.49022591  0.50327519  1
  C  C53  1  0.50000000  0.49046115  0.62914971  1
  C  C54  1  0.50000000  0.48781727  0.75506284  1
  C  C55  1  0.50000000  0.48622177  0.87974089  1
  C  C56  1  0.50000000  0.50897473  0.06699068  1
  C  C57  1  0.50000000  0.51034453  0.19133062  1
  C  C58  1  0.50000000  0.50997967  0.31585725  1
  C  C59  1  0.50000000  0.50930543  0.43891923  1
  C  C60  1  0.50000000  0.51536108  0.56738645  1
  C  C61  1  0.50000000  0.51306750  0.69366839  1
  C  C62  1  0.50000000  0.51100772  0.81823568  1
  C  C63  1  0.50000000  0.50991425  0.94188895  1
  C  C64  1  0.50000000  0.56439209  0.57165860  1
  C  C65  1  0.50000000  0.56130575  0.69659694  1
  C  C66  1  0.50000000  0.55890644  0.82013072  1
  C  C67  1  0.50000000  0.55643775  0.94171347  1
  C  C68  1  0.50000000  0.59377228  0.51566799  1
  C  C69  1  0.50000000  0.58685671  0.63578718  1
  C  C70  1  0.50000000  0.58420742  0.75966405  1
  C  C71  1  0.50000000  0.58166557  0.88337308  1
  C  C72  1  0.50000000  0.63963624  0.51926048  1
  C  C73  1  0.50000000  0.63529833  0.63978150  1
  C  C74  1  0.50000000  0.63243692  0.76335047  1
  C  C75  1  0.50000000  0.63012717  0.88747430  1
  C  C76  1  0.50000000  0.66208093  0.58061699  1
  C  C77  1  0.50000000  0.65775885  0.70346003  1
  C  C78  1  0.50000000  0.65527447  0.82708048  1
  C  C79  1  0.50000000  0.65305310  0.94937971  1
  C  C80  1  0.50000000  0.71061689  0.58267942  1
  C  C81  1  0.50000000  0.70612509  0.70654528  1
  C  C82  1  0.50000000  0.70324405  0.83046606  1
  C  C83  1  0.50000000  0.69939297  0.95253875  1
  C  C84  1  0.50000000  0.73686820  0.52383241  1
  C  C85  1  0.50000000  0.73222032  0.64614686  1
  C  C86  1  0.50000000  0.72831288  0.76934105  1
  C  C87  1  0.50000000  0.72560627  0.89405861  1
  C  C88  1  0.50000000  0.78371585  0.52694578  1
  C  C89  1  0.50000000  0.78038606  0.64928149  1
  C  C90  1  0.50000000  0.77679154  0.77251498  1
  C  C91  1  0.50000000  0.77488120  0.89740614  1
  C  C92  1  0.50000000  0.80541373  0.58857866  1
  C  C93  1  0.50000000  0.80153879  0.71238570  1
  C  C94  1  0.50000000  0.79836323  0.83529671  1
  C  C95  1  0.50000000  0.79897666  0.95695700  1
  H  H96  1  0.50000000  0.16448007  0.50036197  1
  H  H97  1  0.50000000  0.16549041  0.62128524  1
  H  H98  1  0.50000000  0.16364239  0.74073044  1
  H  H99  1  0.50000000  0.15742001  0.85682623  1
  H  H100  1  0.50000000  0.84204105  0.59129636  1
  H  H101  1  0.50000000  0.83819547  0.71490864  1
  H  H102  1  0.50000000  0.83509194  0.83667143  1
  H  H103  1  0.50000000  0.83563205  0.95508227  1
  H  H104  1  0.50000000  0.21686605  0.44964749  1
  H  H105  1  0.50000000  0.19403285  0.97133309  1
  H  H106  1  0.50000000  0.27059620  0.98226316  1
  H  H107  1  0.50000000  0.28114452  0.45689839  1
  H  H108  1  0.50000000  0.31040712  0.01261671  1
  H  H109  1  0.50000000  0.30789457  0.12836553  1
  H  H110  1  0.50000000  0.30746731  0.25480225  1
  H  H111  1  0.50000000  0.30945178  0.37794041  1
  H  H112  1  0.50000000  0.54551612  0.06874782  1
  H  H113  1  0.50000000  0.54703409  0.19067224  1
  H  H114  1  0.50000000  0.54669072  0.31660736  1
  H  H115  1  0.50000000  0.54462491  0.43026194  1
  H  H116  1  0.50000000  0.57380224  0.98969902  1
  H  H117  1  0.50000000  0.58234814  0.46471705  1
  H  H118  1  0.50000000  0.65806383  0.47180220  1
  H  H119  1  0.50000000  0.63465428  0.99689605  1
  H  H120  1  0.50000000  0.71540556  1.00203424  1
  H  H121  1  0.50000000  0.72102350  0.47428937  1
  H  H122  1  0.50000000  0.80317415  0.48023022  1
  H  H123  1  0.50000000  0.78365044  1.00689590  1
