# generated using pymatgen
data_H11C60
_symmetry_space_group_name_H-M   'P 1'
_cell_length_a   10.00000000
_cell_length_b   29.89204000
_cell_length_c   19.77260602
_cell_angle_alpha   90.00000000
_cell_angle_beta   90.00000000
_cell_angle_gamma   90.00000000
_symmetry_Int_Tables_number   1
_chemical_formula_structural   H11C60
_chemical_formula_sum   'H22 C120'
_cell_volume   5910.43530145
_cell_formula_units_Z   2
loop_
 _symmetry_equiv_pos_site_id
 _symmetry_equiv_pos_as_xyz
  1  'x, y, z'
loop_
 _atom_site_type_symbol
 _atom_site_label
 _atom_site_symmetry_multiplicity
 _atom_site_fract_x
 _atom_site_fract_y
 _atom_site_fract_z
 _atom_site_occupancy
  C  C0  1  0.50000000  0.18952648  0.52336149  1
  C  C1  1  0.50000000  0.19670991  0.64503928  1
  C  C2  1  0.50000000  0.20044029  0.76752320  1
  C  C3  1  0.50000000  0.20231272  0.89159809  1
  C  C4  1  0.50000000  0.21661360  0.58019621  1
  C  C5  1  0.50000000  0.22209792  0.70452468  1
  C  C6  1  0.50000000  0.22463217  0.82828097  1
  C  C7  1  0.50000000  0.22670865  0.95117547  1
  C  C8  1  0.50000000  0.26576694  0.57808425  1
  C  C9  1  0.50000000  0.27062148  0.70178439  1
  C  C10  1  0.50000000  0.27274205  0.82595862  1
  C  C11  1  0.50000000  0.27356121  0.94904624  1
  C  C12  1  0.50000000  0.28846243  0.51679524  1
  C  C13  1  0.50000000  0.29265618  0.63765771  1
  C  C14  1  0.50000000  0.29556082  0.76211953  1
  C  C15  1  0.50000000  0.29711493  0.88736519  1
  C  C16  1  0.50000000  0.33452759  0.51343141  1
  C  C17  1  0.50000000  0.34112975  0.63416464  1
  C  C18  1  0.50000000  0.34368942  0.75901051  1
  C  C19  1  0.50000000  0.34574112  0.88399166  1
  C  C20  1  0.50000000  0.36391315  0.56993248  1
  C  C21  1  0.50000000  0.36647990  0.69562494  1
  C  C22  1  0.50000000  0.36852364  0.82037036  1
  C  C23  1  0.50000000  0.37084513  0.94295071  1
  C  C24  1  0.50000000  0.41944620  0.06877701  1
  C  C25  1  0.50000000  0.41945839  0.19274103  1
  C  C26  1  0.50000000  0.41983240  0.31701052  1
  C  C27  1  0.50000000  0.42019930  0.43965402  1
  C  C28  1  0.50000000  0.41318420  0.56702785  1
  C  C29  1  0.50000000  0.41464197  0.69331664  1
  C  C30  1  0.50000000  0.41628735  0.81878360  1
  C  C31  1  0.50000000  0.41743890  0.94333728  1
  C  C32  1  0.50000000  0.44159102  0.00698459  1
  C  C33  1  0.50000000  0.44244967  0.13101808  1
  C  C34  1  0.50000000  0.44240116  0.25480367  1
  C  C35  1  0.50000000  0.44346007  0.37827527  1
  C  C36  1  0.50000000  0.43921659  0.50404840  1
  C  C37  1  0.50000000  0.43783837  0.62928703  1
  C  C38  1  0.50000000  0.43942960  0.75522055  1
  C  C39  1  0.50000000  0.44089032  0.88074662  1
  C  C40  1  0.50000000  0.48955494  0.00574917  1
  C  C41  1  0.50000000  0.49049007  0.13049163  1
  C  C42  1  0.50000000  0.49065434  0.25494675  1
  C  C43  1  0.50000000  0.49096730  0.37933133  1
  C  C44  1  0.50000000  0.48783495  0.50509403  1
  C  C45  1  0.50000000  0.48649610  0.62977698  1
  C  C46  1  0.50000000  0.48741258  0.75508367  1
  C  C47  1  0.50000000  0.48867549  0.88037270  1
  C  C48  1  0.50000000  0.51368868  0.06797802  1
  C  C49  1  0.50000000  0.51423145  0.19275080  1
  C  C50  1  0.50000000  0.51447441  0.31710640  1
  C  C51  1  0.50000000  0.51283357  0.44286750  1
  C  C52  1  0.50000000  0.51120238  0.56755315  1
  C  C53  1  0.50000000  0.51085412  0.69208883  1
  C  C54  1  0.50000000  0.51178808  0.81750880  1
  C  C55  1  0.50000000  0.51279463  0.94297238  1
  C  C56  1  0.50000000  0.56150726  0.06768337  1
  C  C57  1  0.50000000  0.56198276  0.19265658  1
  C  C58  1  0.50000000  0.56203927  0.31742187  1
  C  C59  1  0.50000000  0.56071810  0.44295361  1
  C  C60  1  0.50000000  0.55943463  0.56768256  1
  C  C61  1  0.50000000  0.55911303  0.69233992  1
  C  C62  1  0.50000000  0.55974259  0.81743162  1
  C  C63  1  0.50000000  0.56058776  0.94266592  1
  C  C64  1  0.50000000  0.58481456  0.00501495  1
  C  C65  1  0.50000000  0.58543240  0.13006102  1
  C  C66  1  0.50000000  0.58571782  0.25502051  1
  C  C67  1  0.50000000  0.58494951  0.38046793  1
  C  C68  1  0.50000000  0.58392358  0.50556106  1
  C  C69  1  0.50000000  0.58324911  0.63013328  1
  C  C70  1  0.50000000  0.58328049  0.75478486  1
  C  C71  1  0.50000000  0.58393478  0.87984249  1
  C  C72  1  0.50000000  0.63265491  0.00497155  1
  C  C73  1  0.50000000  0.63320792  0.13003082  1
  C  C74  1  0.50000000  0.63338847  0.25510372  1
  C  C75  1  0.50000000  0.63274129  0.38041405  1
  C  C76  1  0.50000000  0.63186289  0.50545917  1
  C  C77  1  0.50000000  0.63133972  0.63018294  1
  C  C78  1  0.50000000  0.63130171  0.75493330  1
  C  C79  1  0.50000000  0.63186849  0.87991111  1
  C  C80  1  0.50000000  0.65667048  0.06738850  1
  C  C81  1  0.50000000  0.65700445  0.19253398  1
  C  C82  1  0.50000000  0.65669582  0.31789648  1
  C  C83  1  0.50000000  0.65605427  0.44309950  1
  C  C84  1  0.50000000  0.65545223  0.56789878  1
  C  C85  1  0.50000000  0.65517724  0.69257842  1
  C  C86  1  0.50000000  0.65539645  0.81734602  1
  C  C87  1  0.50000000  0.65604314  0.94228991  1
  C  C88  1  0.50000000  0.70459888  0.06743275  1
  C  C89  1  0.50000000  0.70485809  0.19259919  1
  C  C90  1  0.50000000  0.70456155  0.31788496  1
  C  C91  1  0.50000000  0.70400424  0.44299445  1
  C  C92  1  0.50000000  0.70346178  0.56784191  1
  C  C93  1  0.50000000  0.70322541  0.69260854  1
  C  C94  1  0.50000000  0.70344743  0.81742318  1
  C  C95  1  0.50000000  0.70401604  0.94236169  1
  C  C96  1  0.50000000  0.72796933  0.00476330  1
  C  C97  1  0.50000000  0.72839275  0.12996721  1
  C  C98  1  0.50000000  0.72832909  0.25532648  1
  C  C99  1  0.50000000  0.72791673  0.38056449  1
  C  C100  1  0.50000000  0.72740726  0.50553624  1
  C  C101  1  0.50000000  0.72703732  0.63027483  1
  C  C102  1  0.50000000  0.72704641  0.75495307  1
  C  C103  1  0.50000000  0.72740479  0.87974577  1
  C  C104  1  0.50000000  0.77634849  0.00471698  1
  C  C105  1  0.50000000  0.77676315  0.13000463  1
  C  C106  1  0.50000000  0.77669879  0.25537635  1
  C  C107  1  0.50000000  0.77627559  0.38059130  1
  C  C108  1  0.50000000  0.77577420  0.50554274  1
  C  C109  1  0.50000000  0.77544460  0.63024053  1
  C  C110  1  0.50000000  0.77546870  0.75487969  1
  C  C111  1  0.50000000  0.77579935  0.87967151  1
  C  C112  1  0.50000000  0.79933059  0.06721591  1
  C  C113  1  0.50000000  0.79948981  0.19273156  1
  C  C114  1  0.50000000  0.79925323  0.31815011  1
  C  C115  1  0.50000000  0.79881560  0.44325683  1
  C  C116  1  0.50000000  0.79844109  0.56800873  1
  C  C117  1  0.50000000  0.79829847  0.69253976  1
  C  C118  1  0.50000000  0.79844882  0.81714533  1
  C  C119  1  0.50000000  0.79887335  0.94199102  1
  H  H120  1  0.50000000  0.15310854  0.52983278  1
  H  H121  1  0.50000000  0.16012855  0.64901554  1
  H  H122  1  0.50000000  0.16375023  0.76897595  1
  H  H123  1  0.50000000  0.16565523  0.89206094  1
  H  H124  1  0.50000000  0.83602689  0.06689327  1
  H  H125  1  0.50000000  0.83618983  0.19277642  1
  H  H126  1  0.50000000  0.83594509  0.31854037  1
  H  H127  1  0.50000000  0.83550121  0.44369753  1
  H  H128  1  0.50000000  0.83513024  0.56831482  1
  H  H129  1  0.50000000  0.83499285  0.69253330  1
  H  H130  1  0.50000000  0.83514360  0.81685700  1
  H  H131  1  0.50000000  0.83557227  0.94153756  1
  H  H132  1  0.50000000  0.20217362  0.47152168  1
  H  H133  1  0.50000000  0.20954669  1.00013567  1
  H  H134  1  0.50000000  0.29162522  0.99707250  1
  H  H135  1  0.50000000  0.27009273  0.46895747  1
  H  H136  1  0.50000000  0.34554772  0.46188381  1
  H  H137  1  0.50000000  0.35329095  0.99107769  1
  H  H138  1  0.50000000  0.38292201  0.07126628  1
  H  H139  1  0.50000000  0.38279539  0.19297252  1
  H  H140  1  0.50000000  0.38313139  0.31787012  1
  H  H141  1  0.50000000  0.38491814  0.43122627  1
