# generated using pymatgen
data_HC4
_symmetry_space_group_name_H-M   'P 1'
_cell_length_a   10.00000000
_cell_length_b   29.89204000
_cell_length_c   19.83440704
_cell_angle_alpha   90.00000000
_cell_angle_beta   90.00000000
_cell_angle_gamma   90.00000000
_symmetry_Int_Tables_number   1
_chemical_formula_structural   HC4
_chemical_formula_sum   'H28 C112'
_cell_volume   5928.90888501
_cell_formula_units_Z   28
loop_
 _symmetry_equiv_pos_site_id
 _symmetry_equiv_pos_as_xyz
  1  'x, y, z'
loop_
 _atom_site_type_symbol
 _atom_site_label
 _atom_site_symmetry_multiplicity
 _atom_site_fract_x
 _atom_site_fract_y
 _atom_site_fract_z
 _atom_site_occupancy
  C  C0  1  0.50000000  0.83599058  0.50134412  1
  C  C1  1  0.50000000  0.83501356  0.62341671  1
  C  C2  1  0.50000000  0.83770688  0.74656053  1
  C  C3  1  0.50000000  0.84112968  0.87064642  1
  C  C4  1  0.50000000  0.16482554  0.50603307  1
  C  C5  1  0.50000000  0.16557465  0.62845024  1
  C  C6  1  0.50000000  0.16388316  0.75056223  1
  C  C7  1  0.50000000  0.15775982  0.87144306  1
  C  C8  1  0.50000000  0.18839093  0.56614480  1
  C  C9  1  0.50000000  0.18808715  0.69056363  1
  C  C10  1  0.50000000  0.18515341  0.81348843  1
  C  C11  1  0.50000000  0.17811873  0.93350773  1
  C  C12  1  0.50000000  0.23758841  0.56999973  1
  C  C13  1  0.50000000  0.23644543  0.69439777  1
  C  C14  1  0.50000000  0.23358781  0.81854032  1
  C  C15  1  0.50000000  0.22476786  0.93859808  1
  C  C16  1  0.50000000  0.26248403  0.51152205  1
  C  C17  1  0.50000000  0.26079002  0.63326995  1
  C  C18  1  0.50000000  0.25904426  0.75755235  1
  C  C19  1  0.50000000  0.25519829  0.88328567  1
  C  C20  1  0.50000000  0.31080905  0.01303263  1
  C  C21  1  0.50000000  0.30954209  0.13638692  1
  C  C22  1  0.50000000  0.30904391  0.26154721  1
  C  C23  1  0.50000000  0.31005943  0.38581879  1
  C  C24  1  0.50000000  0.30916847  0.51106237  1
  C  C25  1  0.50000000  0.30856503  0.63510556  1
  C  C26  1  0.50000000  0.30719966  0.76022026  1
  C  C27  1  0.50000000  0.30484399  0.88630349  1
  C  C28  1  0.50000000  0.33331160  0.07502876  1
  C  C29  1  0.50000000  0.33163878  0.19911846  1
  C  C30  1  0.50000000  0.33237143  0.32315086  1
  C  C31  1  0.50000000  0.33269882  0.44727208  1
  C  C32  1  0.50000000  0.33287947  0.57328610  1
  C  C33  1  0.50000000  0.33184315  0.69858862  1
  C  C34  1  0.50000000  0.32995084  0.82447617  1
  C  C35  1  0.50000000  0.33053273  0.94910169  1
  C  C36  1  0.50000000  0.38093657  0.07423425  1
  C  C37  1  0.50000000  0.37991112  0.19914870  1
  C  C38  1  0.50000000  0.38045085  0.32354363  1
  C  C39  1  0.50000000  0.38060690  0.44842191  1
  C  C40  1  0.50000000  0.38070586  0.57387201  1
  C  C41  1  0.50000000  0.37996384  0.69911682  1
  C  C42  1  0.50000000  0.37884949  0.82412296  1
  C  C43  1  0.50000000  0.37921060  0.94826185  1
  C  C44  1  0.50000000  0.40340304  0.01078558  1
  C  C45  1  0.50000000  0.40361727  0.13707274  1
  C  C46  1  0.50000000  0.40372524  0.26112182  1
  C  C47  1  0.50000000  0.40401204  0.38585853  1
  C  C48  1  0.50000000  0.40425999  0.51111369  1
  C  C49  1  0.50000000  0.40408854  0.63664312  1
  C  C50  1  0.50000000  0.40352181  0.76207484  1
  C  C51  1  0.50000000  0.40335980  0.88625632  1
  C  C52  1  0.50000000  0.45133964  0.01086264  1
  C  C53  1  0.50000000  0.45106665  0.13717295  1
  C  C54  1  0.50000000  0.45155113  0.26118453  1
  C  C55  1  0.50000000  0.45187538  0.38595910  1
  C  C56  1  0.50000000  0.45201826  0.51123461  1
  C  C57  1  0.50000000  0.45216909  0.63676682  1
  C  C58  1  0.50000000  0.45220890  0.76220070  1
  C  C59  1  0.50000000  0.45186885  0.88630706  1
  C  C60  1  0.50000000  0.47364240  0.07439224  1
  C  C61  1  0.50000000  0.47506448  0.19911305  1
  C  C62  1  0.50000000  0.47513713  0.32352508  1
  C  C63  1  0.50000000  0.47551308  0.44855004  1
  C  C64  1  0.50000000  0.47565151  0.57416025  1
  C  C65  1  0.50000000  0.47612777  0.69945880  1
  C  C66  1  0.50000000  0.47661542  0.82428206  1
  C  C67  1  0.50000000  0.47569690  0.94846638  1
  C  C68  1  0.50000000  0.52112132  0.07538738  1
  C  C69  1  0.50000000  0.52332323  0.19915861  1
  C  C70  1  0.50000000  0.52322714  0.32312695  1
  C  C71  1  0.50000000  0.52349367  0.44750346  1
  C  C72  1  0.50000000  0.52346945  0.57402491  1
  C  C73  1  0.50000000  0.52425991  0.69936892  1
  C  C74  1  0.50000000  0.52553123  0.82479892  1
  C  C75  1  0.50000000  0.52434304  0.94956271  1
  C  C76  1  0.50000000  0.54364519  0.01357963  1
  C  C77  1  0.50000000  0.54517691  0.13636161  1
  C  C78  1  0.50000000  0.54625293  0.26134853  1
  C  C79  1  0.50000000  0.54578587  0.38583934  1
  C  C80  1  0.50000000  0.54720533  0.51161753  1
  C  C81  1  0.50000000  0.54778586  0.63612683  1
  C  C82  1  0.50000000  0.54906130  0.76115048  1
  C  C83  1  0.50000000  0.55027465  0.88675446  1
  C  C84  1  0.50000000  0.59373004  0.51264602  1
  C  C85  1  0.50000000  0.59564656  0.63493003  1
  C  C86  1  0.50000000  0.59734299  0.75906370  1
  C  C87  1  0.50000000  0.59948510  0.88416300  1
  C  C88  1  0.50000000  0.61865586  0.57173765  1
  C  C89  1  0.50000000  0.62057952  0.69609349  1
  C  C90  1  0.50000000  0.62256283  0.82037685  1
  C  C91  1  0.50000000  0.62879526  0.94070034  1
  C  C92  1  0.50000000  0.66715303  0.56879788  1
  C  C93  1  0.50000000  0.66881161  0.69331894  1
  C  C94  1  0.50000000  0.67109482  0.81719695  1
  C  C95  1  0.50000000  0.67470589  0.93776120  1
  C  C96  1  0.50000000  0.69054048  0.50716022  1
  C  C97  1  0.50000000  0.69194318  0.62975770  1
  C  C98  1  0.50000000  0.69388814  0.75370842  1
  C  C99  1  0.50000000  0.69768985  0.87677344  1
  C  C100  1  0.50000000  0.73683918  0.50479272  1
  C  C101  1  0.50000000  0.73993317  0.62708954  1
  C  C102  1  0.50000000  0.74227750  0.75129237  1
  C  C103  1  0.50000000  0.74626326  0.87550946  1
  C  C104  1  0.50000000  0.76265938  0.56373427  1
  C  C105  1  0.50000000  0.76472524  0.68861586  1
  C  C106  1  0.50000000  0.76813050  0.81212332  1
  C  C107  1  0.50000000  0.77227961  0.93480745  1
  C  C108  1  0.50000000  0.81187206  0.56096345  1
  C  C109  1  0.50000000  0.81319967  0.68606868  1
  C  C110  1  0.50000000  0.81631960  0.80957537  1
  C  C111  1  0.50000000  0.81914950  0.93219663  1
  H  H112  1  0.50000000  0.87263711  0.50312867  1
  H  H113  1  0.50000000  0.87169806  0.62256508  1
  H  H114  1  0.50000000  0.87436646  0.74447499  1
  H  H115  1  0.50000000  0.87778339  0.86843274  1
  H  H116  1  0.50000000  0.12818991  0.50647421  1
  H  H117  1  0.50000000  0.12887550  0.62855318  1
  H  H118  1  0.50000000  0.12721987  0.74874706  1
  H  H119  1  0.50000000  0.12133601  0.86557419  1
  H  H120  1  0.50000000  0.82039154  0.45149694  1
  H  H121  1  0.50000000  0.18092461  0.45652997  1
  H  H122  1  0.50000000  0.15838718  0.98009769  1
  H  H123  1  0.50000000  0.23492908  0.99048352  1
  H  H124  1  0.50000000  0.24472833  0.46371193  1
  H  H125  1  0.50000000  0.27531150  0.01938783  1
  H  H126  1  0.50000000  0.27284219  0.13525652  1
  H  H127  1  0.50000000  0.27235203  0.26198853  1
  H  H128  1  0.50000000  0.27354304  0.38410180  1
  H  H129  1  0.50000000  0.57890879  0.02101924  1
  H  H130  1  0.50000000  0.58185793  0.13489850  1
  H  H131  1  0.50000000  0.58295590  0.26129655  1
  H  H132  1  0.50000000  0.58231854  0.38382616  1
  H  H133  1  0.50000000  0.61145589  0.46482351  1
  H  H134  1  0.50000000  0.61801007  0.99212889  1
  H  H135  1  0.50000000  0.69276408  0.98563831  1
  H  H136  1  0.50000000  0.67249345  0.45927326  1
  H  H137  1  0.50000000  0.75319320  0.45549632  1
  H  H138  1  0.50000000  0.75620120  0.98430583  1
  H  H139  1  0.50000000  0.83833945  0.97926962  1
