# generated using pymatgen
data_H3C14
_symmetry_space_group_name_H-M   'P 1'
_cell_length_a   10.00000000
_cell_length_b   29.89204000
_cell_length_c   19.81025408
_cell_angle_alpha   90.00000000
_cell_angle_beta   90.00000000
_cell_angle_gamma   90.00000000
_symmetry_Int_Tables_number   1
_chemical_formula_structural   H3C14
_chemical_formula_sum   'H24 C112'
_cell_volume   5921.68907229
_cell_formula_units_Z   8
loop_
 _symmetry_equiv_pos_site_id
 _symmetry_equiv_pos_as_xyz
  1  'x, y, z'
loop_
 _atom_site_type_symbol
 _atom_site_label
 _atom_site_symmetry_multiplicity
 _atom_site_fract_x
 _atom_site_fract_y
 _atom_site_fract_z
 _atom_site_occupancy
  C  C0  1  0.49999949  0.18943150  0.52485769  1
  C  C1  1  0.49999964  0.19650102  0.64644122  1
  C  C2  1  0.49999996  0.20041162  0.76864106  1
  C  C3  1  0.50000008  0.20224557  0.89248162  1
  C  C4  1  0.49999929  0.21639619  0.58172287  1
  C  C5  1  0.49999974  0.22197911  0.70573299  1
  C  C6  1  0.50000001  0.22456931  0.82925538  1
  C  C7  1  0.50000011  0.22669477  0.95188420  1
  C  C8  1  0.49999927  0.26554840  0.57955447  1
  C  C9  1  0.49999959  0.27050438  0.70294636  1
  C  C10  1  0.49999995  0.27267491  0.82686807  1
  C  C11  1  0.50000009  0.27356029  0.94974761  1
  C  C12  1  0.50000120  0.28811330  0.51827796  1
  C  C13  1  0.49999943  0.29250411  0.63890559  1
  C  C14  1  0.49999976  0.29548051  0.76310512  1
  C  C15  1  0.50000002  0.29706544  0.88810885  1
  C  C16  1  0.50000333  0.33417575  0.51471169  1
  C  C17  1  0.49999964  0.34098597  0.63513370  1
  C  C18  1  0.49999972  0.34364585  0.75973292  1
  C  C19  1  0.50000000  0.34570099  0.88443502  1
  C  C20  1  0.50000083  0.36367041  0.57095031  1
  C  C21  1  0.49999964  0.36640950  0.69639921  1
  C  C22  1  0.49999992  0.36849333  0.82089994  1
  C  C23  1  0.50000001  0.37086469  0.94311431  1
  C  C24  1  0.50000003  0.41909792  0.06871757  1
  C  C25  1  0.50000008  0.41872607  0.19276726  1
  C  C26  1  0.49999922  0.41905700  0.31725491  1
  C  C27  1  0.49999685  0.41964165  0.44013849  1
  C  C28  1  0.50000004  0.41295225  0.56769399  1
  C  C29  1  0.49999997  0.41457538  0.69391130  1
  C  C30  1  0.49999996  0.41628468  0.81915440  1
  C  C31  1  0.49999998  0.41745792  0.94341952  1
  C  C32  1  0.49999999  0.44141694  0.00707546  1
  C  C33  1  0.50000008  0.44184548  0.13109820  1
  C  C34  1  0.50000000  0.44151936  0.25496359  1
  C  C35  1  0.49999909  0.44268052  0.37856728  1
  C  C36  1  0.49999931  0.43873382  0.50450942  1
  C  C37  1  0.50000002  0.43774090  0.62980973  1
  C  C38  1  0.50000000  0.43945008  0.75567207  1
  C  C39  1  0.49999998  0.44093002  0.88092401  1
  C  C40  1  0.49999999  0.48937818  0.00578107  1
  C  C41  1  0.50000006  0.48989934  0.13059323  1
  C  C42  1  0.50000021  0.48978226  0.25516659  1
  C  C43  1  0.50000044  0.49022475  0.37957672  1
  C  C44  1  0.50000041  0.48741239  0.50548467  1
  C  C45  1  0.50000005  0.48648693  0.63016905  1
  C  C46  1  0.49999999  0.48751053  0.75540072  1
  C  C47  1  0.49999998  0.48876465  0.88044405  1
  C  C48  1  0.50000001  0.51323472  0.06809572  1
  C  C49  1  0.50000012  0.51335742  0.19300095  1
  C  C50  1  0.50000044  0.51360541  0.31734869  1
  C  C51  1  0.50000038  0.51221770  0.44305873  1
  C  C52  1  0.50000036  0.51100859  0.56783957  1
  C  C53  1  0.50000000  0.51095291  0.69246243  1
  C  C54  1  0.49999998  0.51201798  0.81774040  1
  C  C55  1  0.49999998  0.51275379  0.94304218  1
  C  C56  1  0.50000000  0.56104514  0.06777779  1
  C  C57  1  0.50000008  0.56105199  0.19296213  1
  C  C58  1  0.50000028  0.56118491  0.31769944  1
  C  C59  1  0.50000026  0.56014358  0.44314141  1
  C  C60  1  0.50000025  0.55927405  0.56787969  1
  C  C61  1  0.50000003  0.55932335  0.69275067  1
  C  C62  1  0.49999998  0.56010588  0.81776507  1
  C  C63  1  0.49999998  0.56059228  0.94271510  1
  C  C64  1  0.49999999  0.58453229  0.00511848  1
  C  C65  1  0.50000001  0.58448641  0.13045188  1
  C  C66  1  0.50000010  0.58471077  0.25523559  1
  C  C67  1  0.50000019  0.58417819  0.38065243  1
  C  C68  1  0.50000018  0.58359060  0.50565039  1
  C  C69  1  0.50000007  0.58318817  0.63028503  1
  C  C70  1  0.49999999  0.58370964  0.75521891  1
  C  C71  1  0.49999998  0.58422591  0.88012862  1
  C  C72  1  0.49999999  0.63242848  0.00517018  1
  C  C73  1  0.49999998  0.63215727  0.13061925  1
  C  C74  1  0.50000001  0.63239338  0.25523034  1
  C  C75  1  0.50000005  0.63206957  0.38045287  1
  C  C76  1  0.50000005  0.63158624  0.50539519  1
  C  C77  1  0.50000000  0.63132951  0.63017134  1
  C  C78  1  0.49999999  0.63194733  0.75552190  1
  C  C79  1  0.49999999  0.63234715  0.88032278  1
  C  C80  1  0.49999998  0.65542183  0.06809878  1
  C  C81  1  0.49999997  0.65595261  0.19291907  1
  C  C82  1  0.50000001  0.65562350  0.31790327  1
  C  C83  1  0.50000002  0.65563150  0.44300005  1
  C  C84  1  0.50000001  0.65526555  0.56780205  1
  C  C85  1  0.49999998  0.65518492  0.69263522  1
  C  C86  1  0.50000000  0.65637886  0.81802813  1
  C  C87  1  0.50000000  0.65639559  0.94252474  1
  C  C88  1  0.49999997  0.70333519  0.06867902  1
  C  C89  1  0.49999997  0.70424192  0.19300313  1
  C  C90  1  0.49999999  0.70373570  0.31752508  1
  C  C91  1  0.50000000  0.70385666  0.44211644  1
  C  C92  1  0.49999999  0.70335998  0.56753938  1
  C  C93  1  0.49999998  0.70311003  0.69263982  1
  C  C94  1  0.49999999  0.70485060  0.81869337  1
  C  C95  1  0.49999999  0.70484100  0.94324378  1
  C  C96  1  0.49999997  0.72596060  0.00644477  1
  C  C97  1  0.49999997  0.72671612  0.13043731  1
  C  C98  1  0.49999998  0.72685491  0.25553014  1
  C  C99  1  0.49999999  0.72630782  0.38013190  1
  C  C100  1  0.50000001  0.72763682  0.50556993  1
  C  C101  1  0.49999999  0.72691683  0.62992875  1
  C  C102  1  0.49999999  0.72696448  0.75445655  1
  C  C103  1  0.49999999  0.72973983  0.88072837  1
  C  C104  1  0.50000003  0.77520920  0.50720020  1
  C  C105  1  0.50000000  0.77502102  0.62959435  1
  C  C106  1  0.49999998  0.77500532  0.75265402  1
  C  C107  1  0.49999999  0.77941650  0.87816534  1
  C  C108  1  0.50000003  0.79829747  0.56690903  1
  C  C109  1  0.49999999  0.79801542  0.69065514  1
  C  C110  1  0.49999997  0.79889942  0.81272143  1
  C  C111  1  0.50000000  0.81243452  0.92834191  1
  H  H112  1  0.49999978  0.15298599  0.53099735  1
  H  H113  1  0.49999992  0.15990432  0.65046469  1
  H  H114  1  0.50000003  0.16375418  0.77021309  1
  H  H115  1  0.50000010  0.16556183  0.89317887  1
  H  H116  1  0.50000004  0.83497879  0.56725205  1
  H  H117  1  0.49999999  0.83469845  0.69068804  1
  H  H118  1  0.49999997  0.83549148  0.80943751  1
  H  H119  1  0.49999998  0.84724492  0.91079897  1
  H  H120  1  0.49999945  0.20232263  0.47325263  1
  H  H121  1  0.50000014  0.20964363  1.00085504  1
  H  H122  1  0.50000013  0.29160623  0.99772695  1
  H  H123  1  0.50000215  0.26951795  0.47071911  1
  H  H124  1  0.50000916  0.34524613  0.46333134  1
  H  H125  1  0.50000002  0.35330893  0.99113052  1
  H  H126  1  0.50000001  0.38256024  0.07096477  1
  H  H127  1  0.49999998  0.38202881  0.19275097  1
  H  H128  1  0.49999899  0.38234433  0.31804886  1
  H  H129  1  0.49999120  0.38431699  0.43192384  1
  H  H130  1  0.49999995  0.76191499  0.00959851  1
  H  H131  1  0.49999999  0.76343143  0.12995555  1
  H  H132  1  0.49999998  0.76356057  0.25594783  1
  H  H133  1  0.49999999  0.76286674  0.37852519  1
  H  H134  1  0.50000006  0.79417843  0.46007336  1
  H  H135  1  0.50000003  0.80938789  0.98288877  1
