# generated using pymatgen
data_H5C36
_symmetry_space_group_name_H-M   'P 1'
_cell_length_a   10.00000000
_cell_length_b   29.89204000
_cell_length_c   19.77919531
_cell_angle_alpha   90.00000000
_cell_angle_beta   90.00000000
_cell_angle_gamma   90.00000000
_symmetry_Int_Tables_number   1
_chemical_formula_structural   H5C36
_chemical_formula_sum   'H20 C144'
_cell_volume   5912.40497508
_cell_formula_units_Z   4
loop_
 _symmetry_equiv_pos_site_id
 _symmetry_equiv_pos_as_xyz
  1  'x, y, z'
loop_
 _atom_site_type_symbol
 _atom_site_label
 _atom_site_symmetry_multiplicity
 _atom_site_fract_x
 _atom_site_fract_y
 _atom_site_fract_z
 _atom_site_occupancy
  C  C0  1  0.50000002  0.84771909  0.52019682  1
  C  C1  1  0.50000004  0.83440043  0.63602370  1
  C  C2  1  0.49999999  0.83359762  0.75846578  1
  C  C3  1  0.49999995  0.83384099  0.88262011  1
  C  C4  1  0.50000002  0.15228095  0.52019687  1
  C  C5  1  0.50000004  0.16559959  0.63602367  1
  C  C6  1  0.49999999  0.16640240  0.75846576  1
  C  C7  1  0.49999995  0.16615901  0.88262008  1
  C  C8  1  0.50000003  0.18522979  0.57052530  1
  C  C9  1  0.50000002  0.18939323  0.69632122  1
  C  C10  1  0.49999997  0.18934976  0.81976038  1
  C  C11  1  0.49999996  0.18922844  0.94250799  1
  C  C12  1  0.50000000  0.23872524  0.06980924  1
  C  C13  1  0.50000001  0.23865508  0.19407518  1
  C  C14  1  0.50000001  0.23890874  0.31864860  1
  C  C15  1  0.50000001  0.23910640  0.44244140  1
  C  C16  1  0.50000001  0.23488769  0.56807133  1
  C  C17  1  0.50000001  0.23740733  0.69457460  1
  C  C18  1  0.49999999  0.23743269  0.81947448  1
  C  C19  1  0.49999998  0.23684068  0.94422737  1
  C  C20  1  0.49999999  0.26091275  0.00763826  1
  C  C21  1  0.50000000  0.26164900  0.13209568  1
  C  C22  1  0.50000001  0.26153910  0.25629109  1
  C  C23  1  0.50000001  0.26207625  0.38046203  1
  C  C24  1  0.50000001  0.26003971  0.50572488  1
  C  C25  1  0.50000001  0.25958302  0.63027836  1
  C  C26  1  0.50000000  0.26116137  0.75657401  1
  C  C27  1  0.49999999  0.26100098  0.88203716  1
  C  C28  1  0.50000000  0.30905309  0.00674541  1
  C  C29  1  0.50000000  0.30975031  0.13170201  1
  C  C30  1  0.50000000  0.30980139  0.25634997  1
  C  C31  1  0.50000000  0.30998019  0.38101383  1
  C  C32  1  0.50000001  0.30845375  0.50647082  1
  C  C33  1  0.50000000  0.30796972  0.63095276  1
  C  C34  1  0.50000000  0.30896159  0.75655525  1
  C  C35  1  0.50000000  0.30900498  0.88172067  1
  C  C36  1  0.50000000  0.33303886  0.06911544  1
  C  C37  1  0.50000000  0.33343110  0.19407498  1
  C  C38  1  0.50000000  0.33353987  0.31866705  1
  C  C39  1  0.50000000  0.33279786  0.44399680  1
  C  C40  1  0.50000000  0.33219404  0.56871441  1
  C  C41  1  0.50000000  0.33215025  0.69352575  1
  C  C42  1  0.50000000  0.33270021  0.81915841  1
  C  C43  1  0.50000000  0.33276623  0.94423876  1
  C  C44  1  0.50000000  0.38089847  0.06893250  1
  C  C45  1  0.50000000  0.38118258  0.19397290  1
  C  C46  1  0.50000000  0.38122808  0.31888374  1
  C  C47  1  0.50000000  0.38067902  0.44411767  1
  C  C48  1  0.50000000  0.38027501  0.56892092  1
  C  C49  1  0.50000000  0.38018028  0.69370693  1
  C  C50  1  0.50000000  0.38055136  0.81898671  1
  C  C51  1  0.50000000  0.38062433  0.94401594  1
  C  C52  1  0.50000000  0.40454362  0.00643279  1
  C  C53  1  0.50000000  0.40471380  0.13136818  1
  C  C54  1  0.50000000  0.40490533  0.25641483  1
  C  C55  1  0.50000000  0.40462116  0.38162318  1
  C  C56  1  0.50000000  0.40436790  0.50661239  1
  C  C57  1  0.50000000  0.40417629  0.63137707  1
  C  C58  1  0.50000000  0.40418859  0.75627781  1
  C  C59  1  0.50000000  0.40439394  0.88145711  1
  C  C60  1  0.50000000  0.45232703  0.00634168  1
  C  C61  1  0.50000000  0.45243285  0.13135004  1
  C  C62  1  0.50000000  0.45256381  0.25646432  1
  C  C63  1  0.50000000  0.45238351  0.38163686  1
  C  C64  1  0.50000000  0.45223225  0.50662523  1
  C  C65  1  0.50000000  0.45211508  0.63146304  1
  C  C66  1  0.50000000  0.45212525  0.75631480  1
  C  C67  1  0.50000000  0.45224151  0.88134297  1
  C  C68  1  0.50000000  0.47612331  0.06881790  1
  C  C69  1  0.50000000  0.47616447  0.19388005  1
  C  C70  1  0.50000000  0.47615263  0.31910212  1
  C  C71  1  0.50000000  0.47610407  0.44415939  1
  C  C72  1  0.50000000  0.47605911  0.56907075  1
  C  C73  1  0.50000000  0.47604155  0.69389600  1
  C  C74  1  0.50000000  0.47605189  0.81880812  1
  C  C75  1  0.50000000  0.47610040  0.94380242  1
  C  C76  1  0.50000000  0.52387670  0.06881790  1
  C  C77  1  0.50000000  0.52383553  0.19388005  1
  C  C78  1  0.50000000  0.52384737  0.31910212  1
  C  C79  1  0.50000000  0.52389593  0.44415939  1
  C  C80  1  0.50000000  0.52394089  0.56907075  1
  C  C81  1  0.50000000  0.52395845  0.69389599  1
  C  C82  1  0.50000000  0.52394812  0.81880812  1
  C  C83  1  0.50000000  0.52389960  0.94380242  1
  C  C84  1  0.50000000  0.54767298  0.00634168  1
  C  C85  1  0.50000000  0.54756715  0.13135004  1
  C  C86  1  0.50000000  0.54743619  0.25646432  1
  C  C87  1  0.50000000  0.54761649  0.38163686  1
  C  C88  1  0.50000000  0.54776775  0.50662523  1
  C  C89  1  0.50000000  0.54788492  0.63146303  1
  C  C90  1  0.50000000  0.54787475  0.75631480  1
  C  C91  1  0.50000000  0.54775849  0.88134297  1
  C  C92  1  0.50000000  0.59545639  0.00643279  1
  C  C93  1  0.50000000  0.59528621  0.13136818  1
  C  C94  1  0.50000000  0.59509468  0.25641483  1
  C  C95  1  0.50000000  0.59537885  0.38162318  1
  C  C96  1  0.50000000  0.59563211  0.50661238  1
  C  C97  1  0.50000000  0.59582370  0.63137706  1
  C  C98  1  0.50000000  0.59581140  0.75627782  1
  C  C99  1  0.50000000  0.59560606  0.88145711  1
  C  C100  1  0.50000000  0.61910154  0.06893250  1
  C  C101  1  0.50000000  0.61881742  0.19397290  1
  C  C102  1  0.50000000  0.61877192  0.31888374  1
  C  C103  1  0.50000000  0.61932099  0.44411767  1
  C  C104  1  0.50000000  0.61972499  0.56892093  1
  C  C105  1  0.50000000  0.61981973  0.69370692  1
  C  C106  1  0.50000000  0.61944865  0.81898671  1
  C  C107  1  0.50000000  0.61937568  0.94401594  1
  C  C108  1  0.50000000  0.66696113  0.06911545  1
  C  C109  1  0.50000000  0.66656890  0.19407498  1
  C  C110  1  0.50000000  0.66646011  0.31866703  1
  C  C111  1  0.50000000  0.66720212  0.44399681  1
  C  C112  1  0.50000000  0.66780597  0.56871444  1
  C  C113  1  0.50000000  0.66784978  0.69352574  1
  C  C114  1  0.50000000  0.66729980  0.81915839  1
  C  C115  1  0.50000000  0.66723377  0.94423875  1
  C  C116  1  0.50000000  0.69094690  0.00674542  1
  C  C117  1  0.50000000  0.69024969  0.13170200  1
  C  C118  1  0.50000000  0.69019861  0.25634997  1
  C  C119  1  0.50000000  0.69001980  0.38101382  1
  C  C120  1  0.50000001  0.69154626  0.50647081  1
  C  C121  1  0.50000000  0.69203027  0.63095276  1
  C  C122  1  0.50000000  0.69103839  0.75655525  1
  C  C123  1  0.50000000  0.69099500  0.88172068  1
  C  C124  1  0.49999999  0.73908726  0.00763828  1
  C  C125  1  0.50000000  0.73835101  0.13209567  1
  C  C126  1  0.50000001  0.73846091  0.25629108  1
  C  C127  1  0.50000001  0.73792379  0.38046205  1
  C  C128  1  0.50000001  0.73996029  0.50572481  1
  C  C129  1  0.50000001  0.74041691  0.63027837  1
  C  C130  1  0.50000000  0.73883857  0.75657403  1
  C  C131  1  0.49999999  0.73899899  0.88203717  1
  C  C132  1  0.50000000  0.76127477  0.06980925  1
  C  C133  1  0.50000001  0.76134492  0.19407518  1
  C  C134  1  0.50000001  0.76109126  0.31864859  1
  C  C135  1  0.50000001  0.76089362  0.44244139  1
  C  C136  1  0.50000001  0.76511220  0.56807135  1
  C  C137  1  0.50000001  0.76259264  0.69457460  1
  C  C138  1  0.49999999  0.76256729  0.81947447  1
  C  C139  1  0.49999998  0.76315933  0.94422738  1
  C  C140  1  0.50000003  0.81477033  0.57052529  1
  C  C141  1  0.50000002  0.81060681  0.69632124  1
  C  C142  1  0.49999997  0.81065026  0.81976036  1
  C  C143  1  0.49999996  0.81077159  0.94250798  1
  H  H144  1  0.50000003  0.88250187  0.53791106  1
  H  H145  1  0.50000006  0.87101301  0.63892938  1
  H  H146  1  0.49999999  0.87028802  0.75813681  1
  H  H147  1  0.49999993  0.87052587  0.88215124  1
  H  H148  1  0.50000003  0.11749807  0.53791106  1
  H  H149  1  0.50000006  0.12898696  0.63892935  1
  H  H150  1  0.49999999  0.12971196  0.75813682  1
  H  H151  1  0.49999993  0.12947413  0.88215128  1
  H  H152  1  0.50000001  0.84464921  0.46555568  1
  H  H153  1  0.50000001  0.15535076  0.46555564  1
  H  H154  1  0.49999994  0.17024956  0.98970931  1
  H  H155  1  0.50000000  0.20218747  0.07187897  1
  H  H156  1  0.50000001  0.20196114  0.19393514  1
  H  H157  1  0.50000001  0.20222478  0.31883706  1
  H  H158  1  0.50000000  0.20316754  0.43913303  1
  H  H159  1  0.50000000  0.79781254  0.07187897  1
  H  H160  1  0.50000001  0.79803886  0.19393515  1
  H  H161  1  0.50000001  0.79777522  0.31883706  1
  H  H162  1  0.50000000  0.79683246  0.43913301  1
  H  H163  1  0.49999994  0.82975043  0.98970930  1
