# generated using pymatgen
data_H3C10
_symmetry_space_group_name_H-M   'P 1'
_cell_length_a   10.00000000
_cell_length_b   25.62946000
_cell_length_c   19.87988338
_cell_angle_alpha   90.00000000
_cell_angle_beta   90.00000000
_cell_angle_gamma   90.00000000
_symmetry_Int_Tables_number   1
_chemical_formula_structural   H3C10
_chemical_formula_sum   'H24 C80'
_cell_volume   5095.10675871
_cell_formula_units_Z   8
loop_
 _symmetry_equiv_pos_site_id
 _symmetry_equiv_pos_as_xyz
  1  'x, y, z'
loop_
 _atom_site_type_symbol
 _atom_site_label
 _atom_site_symmetry_multiplicity
 _atom_site_fract_x
 _atom_site_fract_y
 _atom_site_fract_z
 _atom_site_occupancy
  C  C0  1  0.50000000  0.23465256  0.53416321  1
  C  C1  1  0.50000000  0.23645116  0.65553238  1
  C  C2  1  0.50000000  0.23437920  0.77697985  1
  C  C3  1  0.50000000  0.22683099  0.89746997  1
  C  C4  1  0.50000000  0.26305415  0.59337028  1
  C  C5  1  0.50000000  0.26276978  0.71728433  1
  C  C6  1  0.50000000  0.25896215  0.83980795  1
  C  C7  1  0.50000000  0.25044900  0.95950144  1
  C  C8  1  0.50000000  0.32053037  0.59696091  1
  C  C9  1  0.50000000  0.31918943  0.72096578  1
  C  C10  1  0.50000000  0.31543206  0.84479082  1
  C  C11  1  0.50000000  0.30483377  0.96457531  1
  C  C12  1  0.50000000  0.34963108  0.53875691  1
  C  C13  1  0.50000000  0.34767982  0.66005720  1
  C  C14  1  0.50000000  0.34533576  0.78401118  1
  C  C15  1  0.50000000  0.34028546  0.90954563  1
  C  C16  1  0.50000000  0.40444634  0.04094586  1
  C  C17  1  0.50000000  0.40346528  0.16420422  1
  C  C18  1  0.50000000  0.40310117  0.28874173  1
  C  C19  1  0.50000000  0.40488423  0.41334529  1
  C  C20  1  0.50000000  0.40425459  0.53830646  1
  C  C21  1  0.50000000  0.40353506  0.66183654  1
  C  C22  1  0.50000000  0.40142387  0.78675958  1
  C  C23  1  0.50000000  0.39800431  0.91328910  1
  C  C24  1  0.50000000  0.43090637  0.10291031  1
  C  C25  1  0.50000000  0.42961972  0.22658249  1
  C  C26  1  0.50000000  0.43022351  0.35021549  1
  C  C27  1  0.50000000  0.43157135  0.47459033  1
  C  C28  1  0.50000000  0.43215813  0.60020252  1
  C  C29  1  0.50000000  0.43050983  0.72522205  1
  C  C30  1  0.50000000  0.42723202  0.85148971  1
  C  C31  1  0.50000000  0.42731957  0.97691218  1
  C  C32  1  0.50000000  0.48657389  0.10231251  1
  C  C33  1  0.50000000  0.48614023  0.22642089  1
  C  C34  1  0.50000000  0.48628185  0.35020363  1
  C  C35  1  0.50000000  0.48761644  0.47553493  1
  C  C36  1  0.50000000  0.48831015  0.60061356  1
  C  C37  1  0.50000000  0.48692361  0.72549165  1
  C  C38  1  0.50000000  0.48408320  0.85131929  1
  C  C39  1  0.50000000  0.48406816  0.97636622  1
  C  C40  1  0.50000000  0.51238930  0.03902451  1
  C  C41  1  0.50000000  0.51373438  0.16435951  1
  C  C42  1  0.50000000  0.51386764  0.28813818  1
  C  C43  1  0.50000000  0.51343722  0.41225037  1
  C  C44  1  0.50000000  0.51593997  0.53818728  1
  C  C45  1  0.50000000  0.51592119  0.66323196  1
  C  C46  1  0.50000000  0.51307953  0.78905754  1
  C  C47  1  0.50000000  0.51169147  0.91393876  1
  C  C48  1  0.50000000  0.56843075  0.03996983  1
  C  C49  1  0.50000000  0.56980250  0.16434952  1
  C  C50  1  0.50000000  0.57038404  0.28797836  1
  C  C51  1  0.50000000  0.56910412  0.41164785  1
  C  C52  1  0.50000000  0.57269115  0.53763770  1
  C  C53  1  0.50000000  0.57277220  0.66305857  1
  C  C54  1  0.50000000  0.56949311  0.78932901  1
  C  C55  1  0.50000000  0.56784082  0.91434777  1
  C  C56  1  0.50000000  0.59512823  0.10120951  1
  C  C57  1  0.50000000  0.59691622  0.22583267  1
  C  C58  1  0.50000000  0.59653985  0.35035080  1
  C  C59  1  0.50000000  0.59556636  0.47360464  1
  C  C60  1  0.50000000  0.60200168  0.60126027  1
  C  C61  1  0.50000000  0.59858080  0.72778787  1
  C  C62  1  0.50000000  0.59646421  0.85271433  1
  C  C63  1  0.50000000  0.59573885  0.97624861  1
  C  C64  1  0.50000000  0.65971843  0.60500132  1
  C  C65  1  0.50000000  0.65466658  0.73053515  1
  C  C66  1  0.50000000  0.65231595  0.85449365  1
  C  C67  1  0.50000000  0.65035702  0.97579006  1
  C  C68  1  0.50000000  0.69516353  0.54996530  1
  C  C69  1  0.50000000  0.68457081  0.66975507  1
  C  C70  1  0.50000000  0.68080687  0.79358426  1
  C  C71  1  0.50000000  0.67946074  0.91759199  1
  C  C72  1  0.50000000  0.74954976  0.55501958  1
  C  C73  1  0.50000000  0.74103915  0.67473195  1
  C  C74  1  0.50000000  0.73722373  0.79727412  1
  C  C75  1  0.50000000  0.73692984  0.92119971  1
  C  C76  1  0.50000000  0.77316643  0.61706129  1
  C  C77  1  0.50000000  0.76561519  0.73757396  1
  C  C78  1  0.50000000  0.76353359  0.85903573  1
  C  C79  1  0.50000000  0.76532472  0.98041941  1
  H  H80  1  0.50000000  0.19194616  0.53668414  1
  H  H81  1  0.50000000  0.19363897  0.65587565  1
  H  H82  1  0.50000000  0.19164370  0.77491831  1
  H  H83  1  0.50000000  0.18435498  0.89132967  1
  H  H84  1  0.50000000  0.81563780  0.62323326  1
  H  H85  1  0.50000000  0.80835025  0.73965783  1
  H  H86  1  0.50000000  0.80634511  0.85870670  1
  H  H87  1  0.50000000  0.80803106  0.97788251  1
  H  H88  1  0.50000000  0.25208917  0.48398597  1
  H  H89  1  0.50000000  0.22757020  0.00604308  1
  H  H90  1  0.50000000  0.31702917  0.01617065  1
  H  H91  1  0.50000000  0.32877992  0.49110444  1
  H  H92  1  0.50000000  0.36307002  0.04807031  1
  H  H93  1  0.50000000  0.36064113  0.16362199  1
  H  H94  1  0.50000000  0.36030189  0.28898457  1
  H  H95  1  0.50000000  0.36227132  0.41246025  1
  H  H96  1  0.50000000  0.63774418  0.10203065  1
  H  H97  1  0.50000000  0.63971749  0.22567704  1
  H  H98  1  0.50000000  0.63936385  0.35090180  1
  H  H99  1  0.50000000  0.63694243  0.46645498  1
  H  H100  1  0.50000000  0.67120476  0.02343684  1
  H  H101  1  0.50000000  0.68296194  0.49837591  1
  H  H102  1  0.50000000  0.77238656  0.50843948  1
  H  H103  1  0.50000000  0.74790036  0.03060815  1
