# generated using pymatgen
data_HC4
_symmetry_space_group_name_H-M   'P 1'
_cell_length_a   10.00000000
_cell_length_b   29.89204000
_cell_length_c   19.82334773
_cell_angle_alpha   90.00000000
_cell_angle_beta   90.00000000
_cell_angle_gamma   90.00000000
_symmetry_Int_Tables_number   1
_chemical_formula_structural   HC4
_chemical_formula_sum   'H26 C104'
_cell_volume   5925.60303268
_cell_formula_units_Z   26
loop_
 _symmetry_equiv_pos_site_id
 _symmetry_equiv_pos_as_xyz
  1  'x, y, z'
loop_
 _atom_site_type_symbol
 _atom_site_label
 _atom_site_symmetry_multiplicity
 _atom_site_fract_x
 _atom_site_fract_y
 _atom_site_fract_z
 _atom_site_occupancy
  C  C0  1  0.49999992  0.20001218  0.50601823  1
  C  C1  1  0.49999997  0.20166247  0.62788870  1
  C  C2  1  0.50000004  0.19994225  0.74980458  1
  C  C3  1  0.50000006  0.19373960  0.87055085  1
  C  C4  1  0.49999994  0.22433727  0.56546557  1
  C  C5  1  0.50000001  0.22420914  0.68986186  1
  C  C6  1  0.50000006  0.22121166  0.81267463  1
  C  C7  1  0.50000001  0.21402523  0.93274020  1
  C  C8  1  0.49999996  0.27357117  0.56903001  1
  C  C9  1  0.50000001  0.27255024  0.69357540  1
  C  C10  1  0.50000003  0.26964716  0.81765560  1
  C  C11  1  0.49999996  0.26071296  0.93781108  1
  C  C12  1  0.49999994  0.29842673  0.51043662  1
  C  C13  1  0.49999999  0.29685312  0.63236094  1
  C  C14  1  0.50000002  0.29516386  0.75669084  1
  C  C15  1  0.50000001  0.29116838  0.88248706  1
  C  C16  1  0.50000006  0.34670655  0.01240079  1
  C  C17  1  0.50000002  0.34552472  0.13562061  1
  C  C18  1  0.50000002  0.34507404  0.26081496  1
  C  C19  1  0.50000001  0.34624877  0.38494970  1
  C  C20  1  0.49999998  0.34519252  0.51011277  1
  C  C21  1  0.49999999  0.34463494  0.63423504  1
  C  C22  1  0.50000000  0.34331400  0.75942185  1
  C  C23  1  0.50000000  0.34084376  0.88556770  1
  C  C24  1  0.50000002  0.36933640  0.07429781  1
  C  C25  1  0.50000001  0.36762475  0.19835299  1
  C  C26  1  0.50000001  0.36854954  0.32230425  1
  C  C27  1  0.49999999  0.36885058  0.44641613  1
  C  C28  1  0.49999999  0.36894172  0.57238178  1
  C  C29  1  0.49999999  0.36794124  0.69775060  1
  C  C30  1  0.50000001  0.36602199  0.82375236  1
  C  C31  1  0.50000002  0.36644911  0.94842441  1
  C  C32  1  0.49999997  0.41693511  0.07347872  1
  C  C33  1  0.49999999  0.41590911  0.19837784  1
  C  C34  1  0.50000000  0.41660329  0.32273622  1
  C  C35  1  0.49999999  0.41676770  0.44756323  1
  C  C36  1  0.49999999  0.41680853  0.57302244  1
  C  C37  1  0.50000000  0.41608612  0.69834092  1
  C  C38  1  0.50000001  0.41492440  0.82342836  1
  C  C39  1  0.49999999  0.41515869  0.94754703  1
  C  C40  1  0.49999997  0.43938151  0.01005259  1
  C  C41  1  0.49999996  0.43961682  0.13630310  1
  C  C42  1  0.49999999  0.43982605  0.26029484  1
  C  C43  1  0.50000000  0.44017874  0.38501325  1
  C  C44  1  0.49999999  0.44042789  0.51026473  1
  C  C45  1  0.49999999  0.44021119  0.63581652  1
  C  C46  1  0.50000001  0.43963883  0.76134978  1
  C  C47  1  0.49999999  0.43937633  0.88559796  1
  C  C48  1  0.49999994  0.48730565  0.01007268  1
  C  C49  1  0.49999992  0.48705934  0.13630627  1
  C  C50  1  0.49999998  0.48764275  0.26028181  1
  C  C51  1  0.50000000  0.48803908  0.38505944  1
  C  C52  1  0.49999999  0.48819668  0.51032917  1
  C  C53  1  0.50000001  0.48828244  0.63592117  1
  C  C54  1  0.50000002  0.48832781  0.76145499  1
  C  C55  1  0.49999996  0.48789450  0.88561416  1
  C  C56  1  0.49999992  0.50960276  0.07353388  1
  C  C57  1  0.49999996  0.51112072  0.19818352  1
  C  C58  1  0.49999999  0.51128216  0.32259239  1
  C  C59  1  0.49999999  0.51172417  0.44761797  1
  C  C60  1  0.50000001  0.51179074  0.57325017  1
  C  C61  1  0.50000002  0.51221983  0.69864795  1
  C  C62  1  0.50000002  0.51269476  0.82360377  1
  C  C63  1  0.49999994  0.51170888  0.94773360  1
  C  C64  1  0.50000013  0.55706883  0.07446417  1
  C  C65  1  0.49999998  0.55938140  0.19810355  1
  C  C66  1  0.49999998  0.55938264  0.32211082  1
  C  C67  1  0.49999999  0.55972450  0.44655933  1
  C  C68  1  0.50000002  0.55963048  0.57311879  1
  C  C69  1  0.50000003  0.56038395  0.69856439  1
  C  C70  1  0.50000001  0.56159550  0.82414301  1
  C  C71  1  0.50000010  0.56036234  0.94878824  1
  C  C72  1  0.50000053  0.57968307  0.01279442  1
  C  C73  1  0.50000010  0.58121772  0.13532669  1
  C  C74  1  0.49999998  0.58237981  0.26024093  1
  C  C75  1  0.49999999  0.58200092  0.38477015  1
  C  C76  1  0.50000000  0.58336846  0.51070770  1
  C  C77  1  0.50000002  0.58389698  0.63526028  1
  C  C78  1  0.50000004  0.58511266  0.76043193  1
  C  C79  1  0.49999998  0.58630525  0.88612058  1
  C  C80  1  0.49999999  0.62996577  0.51175622  1
  C  C81  1  0.50000004  0.63174549  0.63404764  1
  C  C82  1  0.50000010  0.63334395  0.75845206  1
  C  C83  1  0.49999983  0.63565269  0.88378363  1
  C  C84  1  0.50000003  0.65484674  0.57076080  1
  C  C85  1  0.50000007  0.65636284  0.69543688  1
  C  C86  1  0.50000008  0.65855186  0.81989927  1
  C  C87  1  0.49999933  0.66498985  0.94024124  1
  C  C88  1  0.50000003  0.70354887  0.56767615  1
  C  C89  1  0.50000005  0.70457422  0.69259105  1
  C  C90  1  0.50000013  0.70707401  0.81661416  1
  C  C91  1  0.49999975  0.71104352  0.93709227  1
  C  C92  1  0.50000000  0.72742779  0.50637530  1
  C  C93  1  0.49999998  0.72767312  0.62916048  1
  C  C94  1  0.50000010  0.72936297  0.75289996  1
  C  C95  1  0.50000016  0.73384450  0.87614103  1
  C  C96  1  0.49999991  0.77432629  0.50490085  1
  C  C97  1  0.49999996  0.77580411  0.62744469  1
  C  C98  1  0.50000008  0.77792586  0.75082279  1
  C  C99  1  0.50000018  0.78301460  0.87481766  1
  C  C100  1  0.49999988  0.79843101  0.56457318  1
  C  C101  1  0.50000000  0.79975193  0.68822035  1
  C  C102  1  0.50000015  0.80317913  0.81036416  1
  C  C103  1  0.50000017  0.80948635  0.93222734  1
  H  H104  1  0.49999991  0.16338554  0.50827426  1
  H  H105  1  0.49999998  0.16498801  0.62824294  1
  H  H106  1  0.50000005  0.16329070  0.74794771  1
  H  H107  1  0.50000006  0.15731190  0.86455640  1
  H  H108  1  0.49999982  0.83511306  0.56429950  1
  H  H109  1  0.49999999  0.83642061  0.68706291  1
  H  H110  1  0.50000014  0.83978131  0.80672124  1
  H  H111  1  0.50000020  0.84598754  0.92696485  1
  H  H112  1  0.49999993  0.21501839  0.45573395  1
  H  H113  1  0.50000002  0.19411774  0.97919943  1
  H  H114  1  0.49999986  0.27095603  0.98971102  1
  H  H115  1  0.49999990  0.28057076  0.46260344  1
  H  H116  1  0.50000015  0.31122928  0.01927838  1
  H  H117  1  0.50000004  0.30882237  0.13431465  1
  H  H118  1  0.50000003  0.30837058  0.26153050  1
  H  H119  1  0.50000003  0.30976362  0.38312818  1
  H  H120  1  0.50000150  0.61495146  0.02053372  1
  H  H121  1  0.50000013  0.61789381  0.13351206  1
  H  H122  1  0.49999999  0.61909130  0.25998526  1
  H  H123  1  0.50000000  0.61853363  0.38238279  1
  H  H124  1  0.49999994  0.64777435  0.46397400  1
  H  H125  1  0.49999823  0.65406506  0.99163947  1
  H  H126  1  0.49999959  0.72944660  0.98479335  1
  H  H127  1  0.50000002  0.70969013  0.45814860  1
  H  H128  1  0.49999985  0.79178832  0.45628678  1
  H  H129  1  0.50000017  0.79619199  0.98361387  1
