# generated using pymatgen
data_H3C14
_symmetry_space_group_name_H-M   'P 1'
_cell_length_a   10.00000000
_cell_length_b   29.89204000
_cell_length_c   19.80427823
_cell_angle_alpha   90.00000000
_cell_angle_beta   90.00000000
_cell_angle_gamma   90.00000000
_symmetry_Int_Tables_number   1
_chemical_formula_structural   H3C14
_chemical_formula_sum   'H24 C112'
_cell_volume   5919.90277001
_cell_formula_units_Z   8
loop_
 _symmetry_equiv_pos_site_id
 _symmetry_equiv_pos_as_xyz
  1  'x, y, z'
loop_
 _atom_site_type_symbol
 _atom_site_label
 _atom_site_symmetry_multiplicity
 _atom_site_fract_x
 _atom_site_fract_y
 _atom_site_fract_z
 _atom_site_occupancy
  C  C0  1  0.49999996  0.19892219  0.50426761  1
  C  C1  1  0.50000001  0.20146577  0.62592760  1
  C  C2  1  0.50000007  0.20007105  0.74802502  1
  C  C3  1  0.50000014  0.19418367  0.86907343  1
  C  C4  1  0.49999999  0.22390009  0.56316254  1
  C  C5  1  0.50000004  0.22414556  0.68782445  1
  C  C6  1  0.50000009  0.22143743  0.81088165  1
  C  C7  1  0.49999986  0.21474165  0.93110321  1
  C  C8  1  0.50000001  0.27322325  0.56617846  1
  C  C9  1  0.50000004  0.27246651  0.69106431  1
  C  C10  1  0.50000004  0.26985558  0.81547118  1
  C  C11  1  0.49999956  0.26139930  0.93588228  1
  C  C12  1  0.50000001  0.29817929  0.50748011  1
  C  C13  1  0.50000002  0.29657499  0.62955234  1
  C  C14  1  0.50000004  0.29515691  0.75417750  1
  C  C15  1  0.49999988  0.29159028  0.88021480  1
  C  C16  1  0.50000035  0.34742986  0.00973987  1
  C  C17  1  0.50000008  0.34655766  0.13261378  1
  C  C18  1  0.50000000  0.34604803  0.25746443  1
  C  C19  1  0.50000001  0.34664719  0.38162504  1
  C  C20  1  0.50000001  0.34503731  0.50700404  1
  C  C21  1  0.50000001  0.34437494  0.63114671  1
  C  C22  1  0.50000000  0.34325690  0.75649162  1
  C  C23  1  0.49999997  0.34116498  0.88292073  1
  C  C24  1  0.50000010  0.37029760  0.07129954  1
  C  C25  1  0.50000000  0.36877010  0.19512363  1
  C  C26  1  0.50000000  0.36922937  0.31914014  1
  C  C27  1  0.50000001  0.36901036  0.44335904  1
  C  C28  1  0.50000001  0.36879659  0.56929693  1
  C  C29  1  0.50000000  0.36775899  0.69454083  1
  C  C30  1  0.49999998  0.36606803  0.82077409  1
  C  C31  1  0.50000006  0.36693535  0.94564530  1
  C  C32  1  0.49999995  0.41783160  0.07032624  1
  C  C33  1  0.49999998  0.41700945  0.19492850  1
  C  C34  1  0.50000000  0.41723962  0.31965156  1
  C  C35  1  0.50000001  0.41699665  0.44461900  1
  C  C36  1  0.50000001  0.41673019  0.56982712  1
  C  C37  1  0.50000000  0.41581408  0.69471382  1
  C  C38  1  0.49999999  0.41479278  0.82005853  1
  C  C39  1  0.49999995  0.41553935  0.94460821  1
  C  C40  1  0.49999995  0.44008696  0.00701596  1
  C  C41  1  0.49999995  0.44092529  0.13274848  1
  C  C42  1  0.49999999  0.44053044  0.25710750  1
  C  C43  1  0.50000001  0.44066470  0.38216286  1
  C  C44  1  0.50000001  0.44058207  0.50730385  1
  C  C45  1  0.50000000  0.44024736  0.63241624  1
  C  C46  1  0.50000000  0.43925401  0.75757407  1
  C  C47  1  0.49999996  0.43926460  0.88222043  1
  C  C48  1  0.49999997  0.48792499  0.00686655  1
  C  C49  1  0.49999997  0.48845445  0.13243167  1
  C  C50  1  0.50000000  0.48814868  0.25713517  1
  C  C51  1  0.50000002  0.48842035  0.38252498  1
  C  C52  1  0.50000002  0.48847614  0.50769775  1
  C  C53  1  0.50000001  0.48846265  0.63244483  1
  C  C54  1  0.49999999  0.48768690  0.75721337  1
  C  C55  1  0.49999997  0.48748458  0.88194879  1
  C  C56  1  0.49999998  0.51158069  0.06953291  1
  C  C57  1  0.50000000  0.51185128  0.19492024  1
  C  C58  1  0.50000003  0.51154399  0.31962502  1
  C  C59  1  0.50000003  0.51207531  0.44519089  1
  C  C60  1  0.50000003  0.51251521  0.57010808  1
  C  C61  1  0.50000001  0.51231020  0.69484331  1
  C  C62  1  0.49999998  0.51153606  0.81961093  1
  C  C63  1  0.49999997  0.51152469  0.94435913  1
  C  C64  1  0.49999999  0.55933764  0.06989489  1
  C  C65  1  0.50000001  0.55946964  0.19494791  1
  C  C66  1  0.50000005  0.55907203  0.31930942  1
  C  C67  1  0.50000005  0.55991226  0.44504232  1
  C  C68  1  0.50000004  0.56073485  0.56983597  1
  C  C69  1  0.50000000  0.56074290  0.69448264  1
  C  C70  1  0.50000000  0.55975165  0.81963989  1
  C  C71  1  0.49999999  0.55942028  0.94475299  1
  C  C72  1  0.49999999  0.58300711  0.00743855  1
  C  C73  1  0.50000000  0.58276347  0.13240552  1
  C  C74  1  0.50000002  0.58298775  0.25712950  1
  C  C75  1  0.50000006  0.58216504  0.38173088  1
  C  C76  1  0.50000005  0.58446085  0.50744829  1
  C  C77  1  0.50000001  0.58520437  0.63199850  1
  C  C78  1  0.50000000  0.58418357  0.75734167  1
  C  C79  1  0.49999999  0.58327130  0.88222852  1
  C  C80  1  0.49999999  0.63099474  0.00869938  1
  C  C81  1  0.50000000  0.63077518  0.13291917  1
  C  C82  1  0.50000000  0.63122607  0.25693638  1
  C  C83  1  0.49999990  0.62969723  0.38075683  1
  C  C84  1  0.49999994  0.63306537  0.50640861  1
  C  C85  1  0.50000002  0.63392939  0.63128069  1
  C  C86  1  0.50000000  0.63223849  0.75751214  1
  C  C87  1  0.49999999  0.63120557  0.88275847  1
  C  C88  1  0.49999999  0.65335955  0.07043493  1
  C  C89  1  0.50000001  0.65395130  0.19459976  1
  C  C90  1  0.49999992  0.65343779  0.31944540  1
  C  C91  1  0.49999965  0.65256894  0.44231197  1
  C  C92  1  0.50000003  0.65883285  0.56913397  1
  C  C93  1  0.50000000  0.65674078  0.69556184  1
  C  C94  1  0.49999999  0.65562411  0.82090444  1
  C  C95  1  0.49999999  0.65496716  0.94505209  1
  C  C96  1  0.50000013  0.70840732  0.57184029  1
  C  C97  1  0.49999996  0.70484151  0.69787501  1
  C  C98  1  0.49999998  0.70342410  0.82249441  1
  C  C99  1  0.49999999  0.70182529  0.94457216  1
  C  C100  1  0.50000045  0.73859691  0.51617299  1
  C  C101  1  0.49999996  0.73014245  0.63658218  1
  C  C102  1  0.49999996  0.72753605  0.76098465  1
  C  C103  1  0.49999999  0.72677445  0.88586751  1
  C  C104  1  0.50000015  0.78525378  0.52095254  1
  C  C105  1  0.49999990  0.77856118  0.64117087  1
  C  C106  1  0.49999996  0.77586009  0.76422248  1
  C  C107  1  0.50000000  0.77609354  0.88888090  1
  C  C108  1  0.49999986  0.80581261  0.58297886  1
  C  C109  1  0.49999993  0.79993341  0.70402065  1
  C  C110  1  0.49999999  0.79853538  0.82612158  1
  C  C111  1  0.50000003  0.80107659  0.94776850  1
  H  H112  1  0.49999995  0.16230287  0.50786718  1
  H  H113  1  0.50000001  0.16478126  0.62639659  1
  H  H114  1  0.50000006  0.16342859  0.74636801  1
  H  H115  1  0.50000022  0.15771433  0.86367247  1
  H  H116  1  0.49999978  0.84228317  0.58835571  1
  H  H117  1  0.49999994  0.83657753  0.70565513  1
  H  H118  1  0.49999999  0.83522084  0.82567280  1
  H  H119  1  0.50000003  0.83769277  0.94412384  1
  H  H120  1  0.49999995  0.21315928  0.45339798  1
  H  H121  1  0.49999978  0.19509823  0.97781139  1
  H  H122  1  0.49999881  0.27190156  0.98771444  1
  H  H123  1  0.50000001  0.28030340  0.45959196  1
  H  H124  1  0.50000100  0.31203446  0.01703174  1
  H  H125  1  0.50000011  0.30988527  0.13162995  1
  H  H126  1  0.50000001  0.30934089  0.25792521  1
  H  H127  1  0.50000002  0.31013232  0.37942853  1
  H  H128  1  0.49999999  0.68987526  0.07263803  1
  H  H129  1  0.50000000  0.69065840  0.19416895  1
  H  H130  1  0.49999989  0.69010940  0.32043924  1
  H  H131  1  0.49999898  0.68796267  0.43499143  1
  H  H132  1  0.49999999  0.71970945  0.99245597  1
  H  H133  1  0.50000122  0.72808543  0.46434821  1
  H  H134  1  0.50000023  0.80491031  0.47425907  1
  H  H135  1  0.50000003  0.78685631  0.99864973  1
