# generated using pymatgen
data_HC4
_symmetry_space_group_name_H-M   'P 1'
_cell_length_a   10.00000000
_cell_length_b   29.89204000
_cell_length_c   19.82203540
_cell_angle_alpha   90.00000000
_cell_angle_beta   90.00000000
_cell_angle_gamma   90.00000000
_symmetry_Int_Tables_number   1
_chemical_formula_structural   HC4
_chemical_formula_sum   'H28 C112'
_cell_volume   5925.21075154
_cell_formula_units_Z   28
loop_
 _symmetry_equiv_pos_site_id
 _symmetry_equiv_pos_as_xyz
  1  'x, y, z'
loop_
 _atom_site_type_symbol
 _atom_site_label
 _atom_site_symmetry_multiplicity
 _atom_site_fract_x
 _atom_site_fract_y
 _atom_site_fract_z
 _atom_site_occupancy
  C  C0  1  0.49999963  0.84634757  0.52120461  1
  C  C1  1  0.49999973  0.83957316  0.64290950  1
  C  C2  1  0.50000002  0.83579941  0.76500888  1
  C  C3  1  0.50000015  0.83390814  0.88875804  1
  C  C4  1  0.49999963  0.15365240  0.52120455  1
  C  C5  1  0.49999973  0.16042675  0.64290954  1
  C  C6  1  0.50000002  0.16420053  0.76500889  1
  C  C7  1  0.50000015  0.16609182  0.88875807  1
  C  C8  1  0.49999956  0.18041260  0.57828109  1
  C  C9  1  0.49999983  0.18588992  0.70223614  1
  C  C10  1  0.50000007  0.18836967  0.82560429  1
  C  C11  1  0.50000001  0.19046312  0.94819127  1
  C  C12  1  0.49999960  0.22959711  0.57640297  1
  C  C13  1  0.49999976  0.23447180  0.69962817  1
  C  C14  1  0.49999996  0.23652513  0.82331688  1
  C  C15  1  0.49999986  0.23732605  0.94617568  1
  C  C16  1  0.50000080  0.25230213  0.51531554  1
  C  C17  1  0.49999968  0.25655437  0.63574726  1
  C  C18  1  0.49999986  0.25949711  0.75970159  1
  C  C19  1  0.49999990  0.26085296  0.88457230  1
  C  C20  1  0.50000208  0.29835138  0.51187056  1
  C  C21  1  0.49999982  0.30507056  0.63211037  1
  C  C22  1  0.49999980  0.30769260  0.75650207  1
  C  C23  1  0.49999988  0.30950552  0.88106360  1
  C  C24  1  0.50000057  0.32786061  0.56809567  1
  C  C25  1  0.49999977  0.33054085  0.69333891  1
  C  C26  1  0.49999988  0.33249145  0.81769605  1
  C  C27  1  0.49999992  0.33445158  0.93991426  1
  C  C28  1  0.50000004  0.38211557  0.06614405  1
  C  C29  1  0.50000007  0.38140764  0.19053162  1
  C  C30  1  0.49999961  0.38221547  0.31557559  1
  C  C31  1  0.49999816  0.38362632  0.43846806  1
  C  C32  1  0.50000008  0.37722004  0.56536557  1
  C  C33  1  0.49999996  0.37883779  0.69115962  1
  C  C34  1  0.49999993  0.38033163  0.81622724  1
  C  C35  1  0.49999996  0.38101929  0.94062801  1
  C  C36  1  0.50000001  0.40460276  0.00460619  1
  C  C37  1  0.50000007  0.40457177  0.12883296  1
  C  C38  1  0.50000005  0.40417695  0.25282589  1
  C  C39  1  0.49999956  0.40620809  0.37666340  1
  C  C40  1  0.49999966  0.40302215  0.50253379  1
  C  C41  1  0.50000002  0.40213627  0.62727249  1
  C  C42  1  0.49999997  0.40371753  0.75282837  1
  C  C43  1  0.49999995  0.40469579  0.87822819  1
  C  C44  1  0.50000003  0.45254264  0.00346780  1
  C  C45  1  0.50000006  0.45265717  0.12840400  1
  C  C46  1  0.50000021  0.45242628  0.25281054  1
  C  C47  1  0.50000039  0.45371589  0.37759746  1
  C  C48  1  0.50000034  0.45174041  0.50355619  1
  C  C49  1  0.50000005  0.45107573  0.62767154  1
  C  C50  1  0.49999998  0.45188696  0.75254589  1
  C  C51  1  0.50000000  0.45252176  0.87786466  1
  C  C52  1  0.50000003  0.47606999  0.06603236  1
  C  C53  1  0.50000014  0.47608806  0.19078563  1
  C  C54  1  0.50000043  0.47629224  0.31478679  1
  C  C55  1  0.50000036  0.47603778  0.44111299  1
  C  C56  1  0.50000031  0.47575664  0.56557035  1
  C  C57  1  0.49999999  0.47565178  0.68967555  1
  C  C58  1  0.50000000  0.47595621  0.81513667  1
  C  C59  1  0.50000003  0.47612734  0.94075433  1
  C  C60  1  0.50000003  0.52393001  0.06603236  1
  C  C61  1  0.50000014  0.52391193  0.19078562  1
  C  C62  1  0.50000043  0.52370776  0.31478678  1
  C  C63  1  0.50000036  0.52396221  0.44111299  1
  C  C64  1  0.50000031  0.52424335  0.56557036  1
  C  C65  1  0.49999999  0.52434821  0.68967556  1
  C  C66  1  0.50000000  0.52404379  0.81513667  1
  C  C67  1  0.50000003  0.52387264  0.94075433  1
  C  C68  1  0.50000003  0.54745735  0.00346780  1
  C  C69  1  0.50000006  0.54734283  0.12840400  1
  C  C70  1  0.50000021  0.54757372  0.25281053  1
  C  C71  1  0.50000039  0.54628410  0.37759745  1
  C  C72  1  0.50000034  0.54825958  0.50355620  1
  C  C73  1  0.50000005  0.54892428  0.62767155  1
  C  C74  1  0.49999998  0.54811305  0.75254589  1
  C  C75  1  0.50000000  0.54747823  0.87786466  1
  C  C76  1  0.50000001  0.59539723  0.00460616  1
  C  C77  1  0.50000007  0.59542821  0.12883295  1
  C  C78  1  0.50000005  0.59582303  0.25282588  1
  C  C79  1  0.49999956  0.59379189  0.37666339  1
  C  C80  1  0.49999966  0.59697784  0.50253383  1
  C  C81  1  0.50000002  0.59786373  0.62727249  1
  C  C82  1  0.49999997  0.59628247  0.75282837  1
  C  C83  1  0.49999995  0.59530421  0.87822817  1
  C  C84  1  0.50000004  0.61788439  0.06614404  1
  C  C85  1  0.50000007  0.61859231  0.19053162  1
  C  C86  1  0.49999961  0.61778447  0.31557559  1
  C  C87  1  0.49999816  0.61637363  0.43846808  1
  C  C88  1  0.50000008  0.62277998  0.56536556  1
  C  C89  1  0.49999996  0.62116222  0.69115961  1
  C  C90  1  0.49999993  0.61966838  0.81622721  1
  C  C91  1  0.49999996  0.61898069  0.94062801  1
  C  C92  1  0.50000057  0.67213937  0.56809567  1
  C  C93  1  0.49999977  0.66945914  0.69333890  1
  C  C94  1  0.49999988  0.66750855  0.81769605  1
  C  C95  1  0.49999992  0.66554839  0.93991423  1
  C  C96  1  0.50000208  0.70164861  0.51187067  1
  C  C97  1  0.49999982  0.69492944  0.63211038  1
  C  C98  1  0.49999980  0.69230741  0.75650205  1
  C  C99  1  0.49999988  0.69049451  0.88106356  1
  C  C100  1  0.50000080  0.74769785  0.51531563  1
  C  C101  1  0.49999968  0.74344562  0.63574725  1
  C  C102  1  0.49999986  0.74050289  0.75970160  1
  C  C103  1  0.49999990  0.73914702  0.88457229  1
  C  C104  1  0.49999961  0.77040296  0.57640297  1
  C  C105  1  0.49999976  0.76552823  0.69962816  1
  C  C106  1  0.49999996  0.76347489  0.82331687  1
  C  C107  1  0.49999986  0.76267396  0.94617562  1
  C  C108  1  0.49999956  0.81958731  0.57828115  1
  C  C109  1  0.49999983  0.81411004  0.70223615  1
  C  C110  1  0.50000007  0.81163030  0.82560429  1
  C  C111  1  0.50000001  0.80953687  0.94819122  1
  H  H112  1  0.49999969  0.88283535  0.52681989  1
  H  H113  1  0.49999984  0.87617632  0.64693490  1
  H  H114  1  0.50000007  0.87249590  0.76646197  1
  H  H115  1  0.50000030  0.87056905  0.88932292  1
  H  H116  1  0.49999969  0.11716476  0.52681988  1
  H  H117  1  0.49999984  0.12382381  0.64693492  1
  H  H118  1  0.50000007  0.12750422  0.76646196  1
  H  H119  1  0.50000030  0.12943102  0.88932290  1
  H  H120  1  0.49999964  0.83320790  0.46974713  1
  H  H121  1  0.49999964  0.16679205  0.46974729  1
  H  H122  1  0.50000003  0.17327481  0.99702244  1
  H  H123  1  0.49999976  0.25536883  0.99413338  1
  H  H124  1  0.50000139  0.23392245  0.46759700  1
  H  H125  1  0.50000554  0.30903259  0.46032349  1
  H  H126  1  0.49999997  0.31682332  0.98784216  1
  H  H127  1  0.50000002  0.34557902  0.06810801  1
  H  H128  1  0.50000001  0.34471189  0.19040011  1
  H  H129  1  0.49999949  0.34551451  0.31711340  1
  H  H130  1  0.49999467  0.34830727  0.43074275  1
  H  H131  1  0.50000002  0.65442103  0.06810800  1
  H  H132  1  0.50000001  0.65528816  0.19040011  1
  H  H133  1  0.49999949  0.65448555  0.31711341  1
  H  H134  1  0.49999467  0.65169279  0.43074276  1
  H  H135  1  0.49999997  0.68317670  0.98784225  1
  H  H136  1  0.50000554  0.69096741  0.46032338  1
  H  H137  1  0.50000139  0.76607761  0.46759687  1
  H  H138  1  0.49999976  0.74463114  0.99413349  1
  H  H139  1  0.50000003  0.82672522  0.99702251  1
