# generated using pymatgen
data_H3C16
_symmetry_space_group_name_H-M   'P 1'
_cell_length_a   10.00000000
_cell_length_b   29.89204000
_cell_length_c   19.80757943
_cell_angle_alpha   90.00000000
_cell_angle_beta   90.00000000
_cell_angle_gamma   90.00000000
_symmetry_Int_Tables_number   1
_chemical_formula_structural   H3C16
_chemical_formula_sum   'H24 C128'
_cell_volume   5920.88956604
_cell_formula_units_Z   8
loop_
 _symmetry_equiv_pos_site_id
 _symmetry_equiv_pos_as_xyz
  1  'x, y, z'
loop_
 _atom_site_type_symbol
 _atom_site_label
 _atom_site_symmetry_multiplicity
 _atom_site_fract_x
 _atom_site_fract_y
 _atom_site_fract_z
 _atom_site_occupancy
  C  C0  1  0.49999998  0.83692847  0.50679577  1
  C  C1  1  0.49999998  0.83438846  0.62844756  1
  C  C2  1  0.50000005  0.83574985  0.75040856  1
  C  C3  1  0.50000007  0.84169303  0.87130782  1
  C  C4  1  0.49999998  0.16307146  0.50679574  1
  C  C5  1  0.49999998  0.16561140  0.62844759  1
  C  C6  1  0.50000005  0.16425006  0.75040854  1
  C  C7  1  0.50000007  0.15830695  0.87130783  1
  C  C8  1  0.49999999  0.18798844  0.56566734  1
  C  C9  1  0.50000001  0.18836278  0.69023217  1
  C  C10  1  0.50000006  0.18562171  0.81319785  1
  C  C11  1  0.49999995  0.17886252  0.93331473  1
  C  C12  1  0.50000002  0.23728979  0.56831744  1
  C  C13  1  0.50000002  0.23665916  0.69322597  1
  C  C14  1  0.50000003  0.23404018  0.81766093  1
  C  C15  1  0.49999986  0.22553139  0.93799009  1
  C  C16  1  0.50000004  0.26210414  0.50942756  1
  C  C17  1  0.50000001  0.26069439  0.63159716  1
  C  C18  1  0.50000003  0.25928321  0.75629916  1
  C  C19  1  0.49999996  0.25582403  0.88236014  1
  C  C20  1  0.50000005  0.31172081  0.01141679  1
  C  C21  1  0.50000001  0.31097866  0.13441381  1
  C  C22  1  0.50000000  0.31039964  0.25896205  1
  C  C23  1  0.50000001  0.31067851  0.38323299  1
  C  C24  1  0.50000003  0.30895283  0.50873339  1
  C  C25  1  0.50000001  0.30847633  0.63305832  1
  C  C26  1  0.50000001  0.30737019  0.75848761  1
  C  C27  1  0.49999998  0.30540798  0.88484727  1
  C  C28  1  0.50000001  0.33460174  0.07302948  1
  C  C29  1  0.50000000  0.33333746  0.19679984  1
  C  C30  1  0.50000001  0.33341777  0.32079224  1
  C  C31  1  0.50000002  0.33295450  0.44504716  1
  C  C32  1  0.50000002  0.33276272  0.57105970  1
  C  C33  1  0.50000001  0.33183755  0.69651635  1
  C  C34  1  0.49999999  0.33025105  0.82269997  1
  C  C35  1  0.50000000  0.33128747  0.94745183  1
  C  C36  1  0.49999999  0.38218392  0.07205002  1
  C  C37  1  0.49999999  0.38159460  0.19664609  1
  C  C38  1  0.50000000  0.38146261  0.32129614  1
  C  C39  1  0.50000001  0.38095471  0.44622063  1
  C  C40  1  0.50000001  0.38064541  0.57155972  1
  C  C41  1  0.50000000  0.37985827  0.69675915  1
  C  C42  1  0.50000000  0.37895746  0.82208760  1
  C  C43  1  0.49999999  0.37989239  0.94642967  1
  C  C44  1  0.49999999  0.40447576  0.00875722  1
  C  C45  1  0.49999999  0.40543067  0.13439416  1
  C  C46  1  0.50000000  0.40504990  0.25893967  1
  C  C47  1  0.50000000  0.40478366  0.38380620  1
  C  C48  1  0.50000000  0.40450737  0.50893890  1
  C  C49  1  0.50000000  0.40408459  0.63429743  1
  C  C50  1  0.50000000  0.40335605  0.75972278  1
  C  C51  1  0.49999999  0.40359427  0.88412317  1
  C  C52  1  0.50000000  0.45235272  0.00848586  1
  C  C53  1  0.50000000  0.45294838  0.13404859  1
  C  C54  1  0.49999999  0.45270140  0.25906149  1
  C  C55  1  0.50000000  0.45256986  0.38410282  1
  C  C56  1  0.50000000  0.45231582  0.50924907  1
  C  C57  1  0.50000000  0.45212123  0.63448248  1
  C  C58  1  0.50000000  0.45171202  0.75948684  1
  C  C59  1  0.50000000  0.45180389  0.88385361  1
  C  C60  1  0.50000000  0.47614763  0.07108600  1
  C  C61  1  0.50000000  0.47626023  0.19664611  1
  C  C62  1  0.50000000  0.47617883  0.32163063  1
  C  C63  1  0.50000000  0.47612225  0.44667693  1
  C  C64  1  0.50000000  0.47602509  0.57195420  1
  C  C65  1  0.50000000  0.47593451  0.69713489  1
  C  C66  1  0.50000000  0.47588251  0.82161264  1
  C  C67  1  0.50000000  0.47599612  0.94603272  1
  C  C68  1  0.50000000  0.52385237  0.07108600  1
  C  C69  1  0.50000000  0.52373977  0.19664611  1
  C  C70  1  0.50000000  0.52382116  0.32163063  1
  C  C71  1  0.50000000  0.52387774  0.44667693  1
  C  C72  1  0.50000000  0.52397489  0.57195418  1
  C  C73  1  0.50000000  0.52406546  0.69713488  1
  C  C74  1  0.50000000  0.52411746  0.82161264  1
  C  C75  1  0.50000000  0.52400386  0.94603273  1
  C  C76  1  0.50000000  0.54764728  0.00848586  1
  C  C77  1  0.50000000  0.54705162  0.13404860  1
  C  C78  1  0.49999999  0.54729860  0.25906149  1
  C  C79  1  0.50000000  0.54743013  0.38410282  1
  C  C80  1  0.50000000  0.54768416  0.50924906  1
  C  C81  1  0.50000000  0.54787874  0.63448249  1
  C  C82  1  0.50000000  0.54828796  0.75948684  1
  C  C83  1  0.50000000  0.54819609  0.88385361  1
  C  C84  1  0.49999999  0.59552424  0.00875723  1
  C  C85  1  0.49999999  0.59456933  0.13439416  1
  C  C86  1  0.50000000  0.59495010  0.25893966  1
  C  C87  1  0.50000000  0.59521633  0.38380619  1
  C  C88  1  0.50000000  0.59549262  0.50893887  1
  C  C89  1  0.50000000  0.59591539  0.63429745  1
  C  C90  1  0.50000000  0.59664394  0.75972279  1
  C  C91  1  0.49999999  0.59640572  0.88412318  1
  C  C92  1  0.49999999  0.61781608  0.07205003  1
  C  C93  1  0.49999999  0.61840540  0.19664609  1
  C  C94  1  0.50000000  0.61853739  0.32129612  1
  C  C95  1  0.50000001  0.61904530  0.44622061  1
  C  C96  1  0.50000001  0.61935460  0.57155972  1
  C  C97  1  0.50000000  0.62014173  0.69675913  1
  C  C98  1  0.50000000  0.62104254  0.82208761  1
  C  C99  1  0.49999999  0.62010761  0.94642968  1
  C  C100  1  0.50000001  0.66539827  0.07302950  1
  C  C101  1  0.50000000  0.66666255  0.19679984  1
  C  C102  1  0.50000001  0.66658223  0.32079223  1
  C  C103  1  0.50000002  0.66704550  0.44504718  1
  C  C104  1  0.50000002  0.66723728  0.57105966  1
  C  C105  1  0.50000001  0.66816242  0.69651635  1
  C  C106  1  0.49999999  0.66974893  0.82269998  1
  C  C107  1  0.50000000  0.66871252  0.94745184  1
  C  C108  1  0.50000005  0.68827918  0.01141681  1
  C  C109  1  0.50000001  0.68902134  0.13441381  1
  C  C110  1  0.50000000  0.68960035  0.25896203  1
  C  C111  1  0.50000001  0.68932144  0.38323297  1
  C  C112  1  0.50000003  0.69104714  0.50873337  1
  C  C113  1  0.50000001  0.69152361  0.63305833  1
  C  C114  1  0.50000001  0.69262979  0.75848763  1
  C  C115  1  0.49999998  0.69459202  0.88484732  1
  C  C116  1  0.50000004  0.73789579  0.50942760  1
  C  C117  1  0.50000001  0.73930560  0.63159716  1
  C  C118  1  0.50000003  0.74071677  0.75629920  1
  C  C119  1  0.49999996  0.74417593  0.88236019  1
  C  C120  1  0.50000002  0.76271031  0.56831749  1
  C  C121  1  0.50000002  0.76334088  0.69322599  1
  C  C122  1  0.50000003  0.76595982  0.81766094  1
  C  C123  1  0.49999986  0.77446861  0.93799002  1
  C  C124  1  0.49999999  0.81201137  0.56566746  1
  C  C125  1  0.50000001  0.81163714  0.69023219  1
  C  C126  1  0.50000006  0.81437824  0.81319790  1
  C  C127  1  0.49999995  0.82113747  0.93331474  1
  H  H128  1  0.49999995  0.87352265  0.51016070  1
  H  H129  1  0.49999994  0.87107181  0.62927148  1
  H  H130  1  0.50000007  0.87242214  0.74892063  1
  H  H131  1  0.50000010  0.87812298  0.86552863  1
  H  H132  1  0.49999995  0.12647761  0.51016070  1
  H  H133  1  0.49999994  0.12892853  0.62927149  1
  H  H134  1  0.50000007  0.12757809  0.74892064  1
  H  H135  1  0.50000010  0.12187714  0.86552866  1
  H  H136  1  0.50000000  0.82242732  0.45617664  1
  H  H137  1  0.50000000  0.17757259  0.45617707  1
  H  H138  1  0.49999991  0.15938850  0.98019774  1
  H  H139  1  0.49999965  0.23564742  0.98999465  1
  H  H140  1  0.50000005  0.24404910  0.46168851  1
  H  H141  1  0.50000017  0.27626672  0.01807251  1
  H  H142  1  0.50000001  0.27429200  0.13358677  1
  H  H143  1  0.50000001  0.27368549  0.25892863  1
  H  H144  1  0.50000002  0.27414702  0.38114036  1
  H  H145  1  0.50000017  0.72373331  0.01807251  1
  H  H146  1  0.50000001  0.72570800  0.13358678  1
  H  H147  1  0.50000001  0.72631453  0.25892862  1
  H  H148  1  0.50000002  0.72585305  0.38114035  1
  H  H149  1  0.50000005  0.75595101  0.46168831  1
  H  H150  1  0.49999965  0.76435257  0.98999478  1
  H  H151  1  0.49999991  0.84061155  0.98019787  1
