# generated using pymatgen
data_H7C20
_symmetry_space_group_name_H-M   'P 1'
_cell_length_a   10.00000000
_cell_length_b   25.62946000
_cell_length_c   19.92644408
_cell_angle_alpha   90.00000000
_cell_angle_beta   90.00000000
_cell_angle_gamma   90.00000000
_symmetry_Int_Tables_number   1
_chemical_formula_structural   H7C20
_chemical_formula_sum   'H28 C80'
_cell_volume   5107.04001427
_cell_formula_units_Z   4
loop_
 _symmetry_equiv_pos_site_id
 _symmetry_equiv_pos_as_xyz
  1  'x, y, z'
loop_
 _atom_site_type_symbol
 _atom_site_label
 _atom_site_symmetry_multiplicity
 _atom_site_fract_x
 _atom_site_fract_y
 _atom_site_fract_z
 _atom_site_occupancy
  C  C0  1  0.50000000  0.81043879  0.53873934  1
  C  C1  1  0.50000000  0.80731127  0.65991639  1
  C  C2  1  0.50000000  0.80914623  0.78224930  1
  C  C3  1  0.50000000  0.81188957  0.90570789  1
  C  C4  1  0.50000000  0.19180419  0.53980362  1
  C  C5  1  0.50000000  0.19443878  0.66083222  1
  C  C6  1  0.50000000  0.19243046  0.78178680  1
  C  C7  1  0.50000000  0.18477139  0.90161173  1
  C  C8  1  0.50000000  0.22065591  0.59857631  1
  C  C9  1  0.50000000  0.22087219  0.72233375  1
  C  C10  1  0.50000000  0.21709698  0.84433128  1
  C  C11  1  0.50000000  0.20818775  0.96352676  1
  C  C12  1  0.50000000  0.27811653  0.60180537  1
  C  C13  1  0.50000000  0.27724867  0.72596050  1
  C  C14  1  0.50000000  0.27358402  0.84938736  1
  C  C15  1  0.50000000  0.26259982  0.96865684  1
  C  C16  1  0.50000000  0.30689991  0.54317688  1
  C  C17  1  0.50000000  0.30534472  0.66484912  1
  C  C18  1  0.50000000  0.30355389  0.78889976  1
  C  C19  1  0.50000000  0.29842151  0.91396273  1
  C  C20  1  0.50000000  0.36150899  0.04461431  1
  C  C21  1  0.50000000  0.35900327  0.16955218  1
  C  C22  1  0.50000000  0.36071982  0.29356658  1
  C  C23  1  0.50000000  0.36244168  0.41719348  1
  C  C24  1  0.50000000  0.36148649  0.54219623  1
  C  C25  1  0.50000000  0.36109161  0.66648001  1
  C  C26  1  0.50000000  0.35979955  0.79177970  1
  C  C27  1  0.50000000  0.35640596  0.91758719  1
  C  C28  1  0.50000000  0.38577289  0.10808530  1
  C  C29  1  0.50000000  0.38644947  0.23100253  1
  C  C30  1  0.50000000  0.38820243  0.35437460  1
  C  C31  1  0.50000000  0.38889928  0.47810165  1
  C  C32  1  0.50000000  0.38899760  0.60437505  1
  C  C33  1  0.50000000  0.38821706  0.72996983  1
  C  C34  1  0.50000000  0.38627746  0.85634004  1
  C  C35  1  0.50000000  0.38543303  0.98109658  1
  C  C36  1  0.50000000  0.44140837  0.10790334  1
  C  C37  1  0.50000000  0.44369141  0.23048868  1
  C  C38  1  0.50000000  0.44486239  0.35391441  1
  C  C39  1  0.50000000  0.44536617  0.47799562  1
  C  C40  1  0.50000000  0.44487381  0.60478569  1
  C  C41  1  0.50000000  0.44444105  0.73042046  1
  C  C42  1  0.50000000  0.44411874  0.85657098  1
  C  C43  1  0.50000000  0.44289142  0.98123438  1
  C  C44  1  0.50000000  0.46588155  0.04488388  1
  C  C45  1  0.50000000  0.46961091  0.16820177  1
  C  C46  1  0.50000000  0.47097204  0.29212294  1
  C  C47  1  0.50000000  0.47131390  0.41661449  1
  C  C48  1  0.50000000  0.47262393  0.54267821  1
  C  C49  1  0.50000000  0.47226665  0.66744675  1
  C  C50  1  0.50000000  0.47215657  0.79272363  1
  C  C51  1  0.50000000  0.47290333  0.91815386  1
  C  C52  1  0.50000000  0.52697429  0.54463379  1
  C  C53  1  0.50000000  0.52805810  0.66682034  1
  C  C54  1  0.50000000  0.52863100  0.79076230  1
  C  C55  1  0.50000000  0.53045835  0.91538648  1
  C  C56  1  0.50000000  0.55538085  0.60406227  1
  C  C57  1  0.50000000  0.55633099  0.72827770  1
  C  C58  1  0.50000000  0.55765659  0.85207122  1
  C  C59  1  0.50000000  0.56431326  0.97176037  1
  C  C60  1  0.50000000  0.61205711  0.60191846  1
  C  C61  1  0.50000000  0.61265801  0.72606697  1
  C  C62  1  0.50000000  0.61427708  0.84942420  1
  C  C63  1  0.50000000  0.61782878  0.96948739  1
  C  C64  1  0.50000000  0.64009952  0.54107050  1
  C  C65  1  0.50000000  0.64032792  0.66312420  1
  C  C66  1  0.50000000  0.64126848  0.78657847  1
  C  C67  1  0.50000000  0.64482221  0.90909088  1
  C  C68  1  0.50000000  0.69420170  0.53952511  1
  C  C69  1  0.50000000  0.69633341  0.66137390  1
  C  C70  1  0.50000000  0.69767462  0.78512649  1
  C  C71  1  0.50000000  0.70142782  0.90871195  1
  C  C72  1  0.50000000  0.72362697  0.59878514  1
  C  C73  1  0.50000000  0.72452100  0.72320688  1
  C  C74  1  0.50000000  0.72738534  0.84603551  1
  C  C75  1  0.50000000  0.73110028  0.96826626  1
  C  C76  1  0.50000000  0.78113833  0.59717735  1
  C  C77  1  0.50000000  0.78109435  0.72169641  1
  C  C78  1  0.50000000  0.78354936  0.84448091  1
  C  C79  1  0.50000000  0.78579370  0.96662479  1
  H  H80  1  0.50000000  0.85312630  0.54222613  1
  H  H81  1  0.50000000  0.85012294  0.66010729  1
  H  H82  1  0.50000000  0.85193941  0.78090936  1
  H  H83  1  0.50000000  0.85462675  0.90367089  1
  H  H84  1  0.50000000  0.14909370  0.54288952  1
  H  H85  1  0.50000000  0.15165299  0.66140772  1
  H  H86  1  0.50000000  0.14970062  0.77976654  1
  H  H87  1  0.50000000  0.14235135  0.89512771  1
  H  H88  1  0.50000000  0.79372068  0.48827440  1
  H  H89  1  0.50000000  0.20884622  0.48949461  1
  H  H90  1  0.50000000  0.18516611  0.00990047  1
  H  H91  1  0.50000000  0.27398729  0.02041834  1
  H  H92  1  0.50000000  0.28580420  0.49575425  1
  H  H93  1  0.50000000  0.32003893  0.04929128  1
  H  H94  1  0.50000000  0.31617039  0.17021249  1
  H  H95  1  0.50000000  0.31792153  0.29456023  1
  H  H96  1  0.50000000  0.31980390  0.41562423  1
  H  H97  1  0.50000000  0.50704715  0.05137312  1
  H  H98  1  0.50000000  0.51244283  0.16670314  1
  H  H99  1  0.50000000  0.51378779  0.29125587  1
  H  H100  1  0.50000000  0.51398008  0.41451304  1
  H  H101  1  0.50000000  0.54821870  0.49736399  1
  H  H102  1  0.50000000  0.55161580  0.02280777  1
  H  H103  1  0.50000000  0.63856320  0.01738143  1
  H  H104  1  0.50000000  0.61964615  0.49297402  1
  H  H105  1  0.50000000  0.71392380  0.49079495  1
  H  H106  1  0.50000000  0.71183507  0.01718939  1
  H  H107  1  0.50000000  0.80781891  0.01379255  1
