# generated using pymatgen
data_H7C24
_symmetry_space_group_name_H-M   'P 1'
_cell_length_a   10.00000000
_cell_length_b   29.89204000
_cell_length_c   19.83680972
_cell_angle_alpha   90.00000000
_cell_angle_beta   90.00000000
_cell_angle_gamma   90.00000000
_symmetry_Int_Tables_number   1
_chemical_formula_structural   H7C24
_chemical_formula_sum   'H28 C96'
_cell_volume   5929.62709714
_cell_formula_units_Z   4
loop_
 _symmetry_equiv_pos_site_id
 _symmetry_equiv_pos_as_xyz
  1  'x, y, z'
loop_
 _atom_site_type_symbol
 _atom_site_label
 _atom_site_symmetry_multiplicity
 _atom_site_fract_x
 _atom_site_fract_y
 _atom_site_fract_z
 _atom_site_occupancy
  C  C0  1  0.50000000  0.18971625  0.52998168  1
  C  C1  1  0.50000000  0.19639813  0.65187994  1
  C  C2  1  0.50000000  0.20003180  0.77536597  1
  C  C3  1  0.50000000  0.20285496  0.89947676  1
  C  C4  1  0.50000000  0.21648721  0.58696544  1
  C  C5  1  0.50000000  0.22119160  0.71203938  1
  C  C6  1  0.50000000  0.22462125  0.83584993  1
  C  C7  1  0.50000000  0.22768982  0.95851937  1
  C  C8  1  0.50000000  0.26572457  0.58424828  1
  C  C9  1  0.50000000  0.26962319  0.70921617  1
  C  C10  1  0.50000000  0.27282147  0.83324456  1
  C  C11  1  0.50000000  0.27456893  0.95609275  1
  C  C12  1  0.50000000  0.28874918  0.52264474  1
  C  C13  1  0.50000000  0.29134604  0.64508912  1
  C  C14  1  0.50000000  0.29507476  0.76923205  1
  C  C15  1  0.50000000  0.29780146  0.89432623  1
  C  C16  1  0.50000000  0.33509816  0.52001419  1
  C  C17  1  0.50000000  0.33931570  0.64244539  1
  C  C18  1  0.50000000  0.34319153  0.76611375  1
  C  C19  1  0.50000000  0.34646327  0.89083555  1
  C  C20  1  0.50000000  0.36130985  0.57907107  1
  C  C21  1  0.50000000  0.36548600  0.70297953  1
  C  C22  1  0.50000000  0.36866627  0.82709147  1
  C  C23  1  0.50000000  0.37277544  0.94954870  1
  C  C24  1  0.50000000  0.40968019  0.57681255  1
  C  C25  1  0.50000000  0.41382501  0.69984371  1
  C  C26  1  0.50000000  0.41661577  0.82369878  1
  C  C27  1  0.50000000  0.41892828  0.94631743  1
  C  C28  1  0.50000000  0.43220799  0.51524307  1
  C  C29  1  0.50000000  0.43643252  0.63608962  1
  C  C30  1  0.50000000  0.43934278  0.75985412  1
  C  C31  1  0.50000000  0.44181173  0.88422724  1
  C  C32  1  0.50000000  0.47805980  0.51156856  1
  C  C33  1  0.50000000  0.48489743  0.63206034  1
  C  C34  1  0.50000000  0.48751551  0.75634985  1
  C  C35  1  0.50000000  0.49021291  0.88059456  1
  C  C36  1  0.50000000  0.50751199  0.56777612  1
  C  C37  1  0.50000000  0.51042095  0.69305469  1
  C  C38  1  0.50000000  0.51280323  0.81715092  1
  C  C39  1  0.50000000  0.51548764  0.93926394  1
  C  C40  1  0.50000000  0.56364551  0.06463539  1
  C  C41  1  0.50000000  0.56283971  0.18866415  1
  C  C42  1  0.50000000  0.56313466  0.31295912  1
  C  C43  1  0.50000000  0.56326395  0.43574298  1
  C  C44  1  0.50000000  0.55659392  0.56377974  1
  C  C45  1  0.50000000  0.55860715  0.69022103  1
  C  C46  1  0.50000000  0.56067019  0.81544600  1
  C  C47  1  0.50000000  0.56201185  0.93955282  1
  C  C48  1  0.50000000  0.58601161  0.00318790  1
  C  C49  1  0.50000000  0.58608733  0.12729581  1
  C  C50  1  0.50000000  0.58565629  0.25071175  1
  C  C51  1  0.50000000  0.58654492  0.37420483  1
  C  C52  1  0.50000000  0.58223221  0.50010033  1
  C  C53  1  0.50000000  0.58134868  0.62565781  1
  C  C54  1  0.50000000  0.58363552  0.75196279  1
  C  C55  1  0.50000000  0.58543304  0.87713296  1
  C  C56  1  0.50000000  0.63409029  0.00199695  1
  C  C57  1  0.50000000  0.63420262  0.12705293  1
  C  C58  1  0.50000000  0.63411178  0.25089777  1
  C  C59  1  0.50000000  0.63423931  0.37508989  1
  C  C60  1  0.50000000  0.63101530  0.50085688  1
  C  C61  1  0.50000000  0.63001338  0.62576326  1
  C  C62  1  0.50000000  0.63174898  0.75164769  1
  C  C63  1  0.50000000  0.63338526  0.87675418  1
  C  C64  1  0.50000000  0.65726863  0.06464754  1
  C  C65  1  0.50000000  0.65794998  0.18907048  1
  C  C66  1  0.50000000  0.65767972  0.31304681  1
  C  C67  1  0.50000000  0.65600937  0.43863827  1
  C  C68  1  0.50000000  0.65427334  0.56330835  1
  C  C69  1  0.50000000  0.65421291  0.68807120  1
  C  C70  1  0.50000000  0.65662479  0.81406075  1
  C  C71  1  0.50000000  0.65760430  0.93913063  1
  C  C72  1  0.50000000  0.70527738  0.06474650  1
  C  C73  1  0.50000000  0.70643298  0.18908576  1
  C  C74  1  0.50000000  0.70575413  0.31323423  1
  C  C75  1  0.50000000  0.70425065  0.43810343  1
  C  C76  1  0.50000000  0.70264711  0.56318594  1
  C  C77  1  0.50000000  0.70236707  0.68807126  1
  C  C78  1  0.50000000  0.70513024  0.81434304  1
  C  C79  1  0.50000000  0.70606359  0.93927357  1
  C  C80  1  0.50000000  0.72755209  0.00214734  1
  C  C81  1  0.50000000  0.72873966  0.12634548  1
  C  C82  1  0.50000000  0.72908022  0.25151825  1
  C  C83  1  0.50000000  0.72734042  0.37655198  1
  C  C84  1  0.50000000  0.72747279  0.50172102  1
  C  C85  1  0.50000000  0.72618388  0.62551868  1
  C  C86  1  0.50000000  0.72659336  0.74967096  1
  C  C87  1  0.50000000  0.73033826  0.87604104  1
  C  C88  1  0.50000000  0.77510484  0.50348134  1
  C  C89  1  0.50000000  0.77435427  0.62521396  1
  C  C90  1  0.50000000  0.77461624  0.74760819  1
  C  C91  1  0.50000000  0.77996700  0.87276863  1
  C  C92  1  0.50000000  0.79801088  0.56303515  1
  C  C93  1  0.50000000  0.79753604  0.68580409  1
  C  C94  1  0.50000000  0.79893049  0.80714031  1
  C  C95  1  0.50000000  0.81340570  0.92216378  1
  H  H96  1  0.50000000  0.15323178  0.53528457  1
  H  H97  1  0.50000000  0.15976783  0.65518072  1
  H  H98  1  0.50000000  0.16337041  0.77767720  1
  H  H99  1  0.50000000  0.16619562  0.90096812  1
  H  H100  1  0.50000000  0.83467759  0.56418098  1
  H  H101  1  0.50000000  0.83421872  0.68568596  1
  H  H102  1  0.50000000  0.83549531  0.80313136  1
  H  H103  1  0.50000000  0.84800329  0.90373360  1
  H  H104  1  0.50000000  0.20311797  0.47870451  1
  H  H105  1  0.50000000  0.21082090  1.00757624  1
  H  H106  1  0.50000000  0.29298578  1.00370567  1
  H  H107  1  0.50000000  0.27006009  0.47522608  1
  H  H108  1  0.50000000  0.35105301  0.47048760  1
  H  H109  1  0.50000000  0.35695230  0.99921097  1
  H  H110  1  0.50000000  0.43735737  0.99386008  1
  H  H111  1  0.50000000  0.41381957  0.46764058  1
  H  H112  1  0.50000000  0.48920316  0.46027616  1
  H  H113  1  0.50000000  0.49805487  0.98730096  1
  H  H114  1  0.50000000  0.52711706  0.06670480  1
  H  H115  1  0.50000000  0.52615044  0.18839938  1
  H  H116  1  0.50000000  0.52641935  0.31348069  1
  H  H117  1  0.50000000  0.52791940  0.42700237  1
  H  H118  1  0.50000000  0.76353668  0.00503948  1
  H  H119  1  0.50000000  0.76545579  0.12562699  1
  H  H120  1  0.50000000  0.76577099  0.25199008  1
  H  H121  1  0.50000000  0.76390514  0.37596736  1
  H  H122  1  0.50000000  0.79396187  0.45635019  1
  H  H123  1  0.50000000  0.81089972  0.97669563  1
