# generated using pymatgen
data_H3C8
_symmetry_space_group_name_H-M   'P 1'
_cell_length_a   10.00000000
_cell_length_b   21.36688000
_cell_length_c   19.90887385
_cell_angle_alpha   90.00000000
_cell_angle_beta   90.00000000
_cell_angle_gamma   90.00000000
_symmetry_Int_Tables_number   1
_chemical_formula_structural   H3C8
_chemical_formula_sum   'H24 C64'
_cell_volume   4253.90518420
_cell_formula_units_Z   8
loop_
 _symmetry_equiv_pos_site_id
 _symmetry_equiv_pos_as_xyz
  1  'x, y, z'
loop_
 _atom_site_type_symbol
 _atom_site_label
 _atom_site_symmetry_multiplicity
 _atom_site_fract_x
 _atom_site_fract_y
 _atom_site_fract_z
 _atom_site_occupancy
  C  C0  1  0.50000000  0.77003485  0.53270849  1
  C  C1  1  0.50000000  0.76650574  0.65411613  1
  C  C2  1  0.50000000  0.76806921  0.77543149  1
  C  C3  1  0.50000000  0.77632638  0.89547825  1
  C  C4  1  0.50000000  0.22996513  0.53270855  1
  C  C5  1  0.50000000  0.23349422  0.65411613  1
  C  C6  1  0.50000000  0.23193076  0.77543148  1
  C  C7  1  0.50000000  0.22367359  0.89547825  1
  C  C8  1  0.50000000  0.26455787  0.59156181  1
  C  C9  1  0.50000000  0.26549441  0.71554062  1
  C  C10  1  0.50000000  0.26202104  0.83779720  1
  C  C11  1  0.50000000  0.25232650  0.95711860  1
  C  C12  1  0.50000000  0.33351618  0.59433550  1
  C  C13  1  0.50000000  0.33317330  0.71873229  1
  C  C14  1  0.50000000  0.32985601  0.84239368  1
  C  C15  1  0.50000000  0.31764116  0.96183165  1
  C  C16  1  0.50000000  0.36776700  0.53551423  1
  C  C17  1  0.50000000  0.36646089  0.65729956  1
  C  C18  1  0.50000000  0.36528611  0.78151734  1
  C  C19  1  0.50000000  0.36021439  0.90679443  1
  C  C20  1  0.50000000  0.43710951  0.03648774  1
  C  C21  1  0.50000000  0.43364378  0.16078652  1
  C  C22  1  0.50000000  0.43386660  0.28477301  1
  C  C23  1  0.50000000  0.43465256  0.40877841  1
  C  C24  1  0.50000000  0.43329769  0.53419168  1
  C  C25  1  0.50000000  0.43331406  0.65856116  1
  C  C26  1  0.50000000  0.43285252  0.78400338  1
  C  C27  1  0.50000000  0.42994399  0.90984749  1
  C  C28  1  0.50000000  0.46654726  0.09973142  1
  C  C29  1  0.50000000  0.46568593  0.22266548  1
  C  C30  1  0.50000000  0.46600690  0.34607802  1
  C  C31  1  0.50000000  0.46612873  0.46991543  1
  C  C32  1  0.50000000  0.46644540  0.59618062  1
  C  C33  1  0.50000000  0.46622992  0.72188887  1
  C  C34  1  0.50000000  0.46525492  0.84849883  1
  C  C35  1  0.50000000  0.46549897  0.97296021  1
  C  C36  1  0.50000000  0.53345273  0.09973142  1
  C  C37  1  0.50000000  0.53431407  0.22266548  1
  C  C38  1  0.50000000  0.53399309  0.34607802  1
  C  C39  1  0.50000000  0.53387128  0.46991545  1
  C  C40  1  0.50000000  0.53355462  0.59618062  1
  C  C41  1  0.50000000  0.53377014  0.72188887  1
  C  C42  1  0.50000000  0.53474511  0.84849883  1
  C  C43  1  0.50000000  0.53450102  0.97296021  1
  C  C44  1  0.50000000  0.56289046  0.03648773  1
  C  C45  1  0.50000000  0.56635621  0.16078651  1
  C  C46  1  0.50000000  0.56613339  0.28477301  1
  C  C47  1  0.50000000  0.56534744  0.40877840  1
  C  C48  1  0.50000000  0.56670233  0.53419168  1
  C  C49  1  0.50000000  0.56668595  0.65856118  1
  C  C50  1  0.50000000  0.56714751  0.78400337  1
  C  C51  1  0.50000000  0.57005602  0.90984749  1
  C  C52  1  0.50000000  0.63223298  0.53551423  1
  C  C53  1  0.50000000  0.63353912  0.65729955  1
  C  C54  1  0.50000000  0.63471389  0.78151734  1
  C  C55  1  0.50000000  0.63978561  0.90679443  1
  C  C56  1  0.50000000  0.66648384  0.59433550  1
  C  C57  1  0.50000000  0.66682672  0.71873229  1
  C  C58  1  0.50000000  0.67014400  0.84239370  1
  C  C59  1  0.50000000  0.68235884  0.96183166  1
  C  C60  1  0.50000000  0.73544213  0.59156183  1
  C  C61  1  0.50000000  0.73450560  0.71554060  1
  C  C62  1  0.50000000  0.73797896  0.83779719  1
  C  C63  1  0.50000000  0.74767348  0.95711861  1
  H  H64  1  0.50000000  0.82127967  0.53538678  1
  H  H65  1  0.50000000  0.81784471  0.65493279  1
  H  H66  1  0.50000000  0.81931939  0.77396401  1
  H  H67  1  0.50000000  0.82733098  0.88979839  1
  H  H68  1  0.50000000  0.17872032  0.53538689  1
  H  H69  1  0.50000000  0.18215530  0.65493281  1
  H  H70  1  0.50000000  0.18068059  0.77396399  1
  H  H71  1  0.50000000  0.17266900  0.88979835  1
  H  H72  1  0.50000000  0.74932748  0.48248283  1
  H  H73  1  0.50000000  0.25067251  0.48248285  1
  H  H74  1  0.50000000  0.22498890  0.00367283  1
  H  H75  1  0.50000000  0.33157919  0.01359274  1
  H  H76  1  0.50000000  0.34228703  0.48816939  1
  H  H77  1  0.50000000  0.38740249  0.04165946  1
  H  H78  1  0.50000000  0.38225333  0.16078298  1
  H  H79  1  0.50000000  0.38251074  0.28488820  1
  H  H80  1  0.50000000  0.38349505  0.40714996  1
  H  H81  1  0.50000000  0.61259749  0.04165942  1
  H  H82  1  0.50000000  0.61774668  0.16078298  1
  H  H83  1  0.50000000  0.61748926  0.28488820  1
  H  H84  1  0.50000000  0.61650495  0.40714996  1
  H  H85  1  0.50000000  0.65771297  0.48816939  1
  H  H86  1  0.50000000  0.66842083  0.01359277  1
  H  H87  1  0.50000000  0.77501108  0.00367285  1
