# generated using pymatgen
data_HC3
_symmetry_space_group_name_H-M   'P 1'
_cell_length_a   10.00000000
_cell_length_b   29.89204000
_cell_length_c   19.75762710
_cell_angle_alpha   90.00000000
_cell_angle_beta   90.00000000
_cell_angle_gamma   90.00000000
_symmetry_Int_Tables_number   1
_chemical_formula_structural   HC3
_chemical_formula_sum   'H32 C96'
_cell_volume   5905.95779588
_cell_formula_units_Z   32
loop_
 _symmetry_equiv_pos_site_id
 _symmetry_equiv_pos_as_xyz
  1  'x, y, z'
loop_
 _atom_site_type_symbol
 _atom_site_label
 _atom_site_symmetry_multiplicity
 _atom_site_fract_x
 _atom_site_fract_y
 _atom_site_fract_z
 _atom_site_occupancy
  C  C0  1  0.49999957  0.84183314  0.50830266  1
  C  C1  1  0.49999983  0.83784928  0.63050582  1
  C  C2  1  0.50000002  0.83766568  0.75448865  1
  C  C3  1  0.50000040  0.83842990  0.87924093  1
  C  C4  1  0.49999960  0.15902930  0.00661939  1
  C  C5  1  0.49999963  0.15375110  0.13508081  1
  C  C6  1  0.49999992  0.15506598  0.26231141  1
  C  C7  1  0.50000001  0.15948480  0.38864972  1
  C  C8  1  0.50000001  0.16391909  0.51281193  1
  C  C9  1  0.50000002  0.16622713  0.63676400  1
  C  C10  1  0.50000004  0.16734512  0.76057983  1
  C  C11  1  0.49999958  0.16519047  0.88315610  1
  C  C12  1  0.49999979  0.17721345  0.07262235  1
  C  C13  1  0.49999987  0.17646773  0.19836384  1
  C  C14  1  0.49999999  0.17941631  0.32400908  1
  C  C15  1  0.50000002  0.18487401  0.44914362  1
  C  C16  1  0.50000003  0.18817219  0.57403747  1
  C  C17  1  0.50000004  0.18984947  0.69830287  1
  C  C18  1  0.50000001  0.18999665  0.82272460  1
  C  C19  1  0.49999955  0.18566943  0.94685240  1
  C  C20  1  0.50000107  0.22554025  0.07500309  1
  C  C21  1  0.50000003  0.22541461  0.19836486  1
  C  C22  1  0.49999996  0.22821551  0.32204948  1
  C  C23  1  0.50000003  0.23373837  0.44635028  1
  C  C24  1  0.50000006  0.23663091  0.57266203  1
  C  C25  1  0.50000006  0.23823936  0.69810380  1
  C  C26  1  0.50000005  0.23874620  0.82428565  1
  C  C27  1  0.50000062  0.23478897  0.94987261  1
  C  C28  1  0.50000295  0.25126033  0.01543854  1
  C  C29  1  0.50000085  0.24816734  0.13669011  1
  C  C30  1  0.49999991  0.24950334  0.25947235  1
  C  C31  1  0.50000001  0.25340685  0.38303253  1
  C  C32  1  0.50000006  0.25946502  0.50963836  1
  C  C33  1  0.50000010  0.26128723  0.63464320  1
  C  C34  1  0.50000008  0.26224266  0.76024845  1
  C  C35  1  0.49999997  0.26173155  0.88713691  1
  C  C36  1  0.50000004  0.30656769  0.51023136  1
  C  C37  1  0.50000015  0.30919690  0.63354227  1
  C  C38  1  0.50000038  0.31021009  0.75864372  1
  C  C39  1  0.49999912  0.31067532  0.88468248  1
  C  C40  1  0.50000003  0.33206708  0.56977561  1
  C  C41  1  0.50000036  0.33365723  0.69560920  1
  C  C42  1  0.50000027  0.33428537  0.82101002  1
  C  C43  1  0.49999660  0.33844548  0.94263006  1
  C  C44  1  0.50000001  0.38095649  0.56881891  1
  C  C45  1  0.50000030  0.38177607  0.69427207  1
  C  C46  1  0.50000055  0.38253509  0.81896584  1
  C  C47  1  0.49999850  0.38426318  0.94090048  1
  C  C48  1  0.49999983  0.40568161  0.50799024  1
  C  C49  1  0.50000009  0.40535280  0.63096771  1
  C  C50  1  0.50000049  0.40616526  0.75582889  1
  C  C51  1  0.50000062  0.40777589  0.87987321  1
  C  C52  1  0.49999978  0.45200204  0.50753378  1
  C  C53  1  0.50000002  0.45351858  0.63046067  1
  C  C54  1  0.50000041  0.45441456  0.75521809  1
  C  C55  1  0.50000081  0.45588525  0.87979536  1
  C  C56  1  0.49999992  0.47726490  0.56785463  1
  C  C57  1  0.50000010  0.47808837  0.69287192  1
  C  C58  1  0.50000050  0.47915814  0.81729647  1
  C  C59  1  0.50000079  0.48047761  0.94068860  1
  C  C60  1  0.49999986  0.52592972  0.56749604  1
  C  C61  1  0.50000003  0.52628606  0.69257191  1
  C  C62  1  0.50000029  0.52699562  0.81716644  1
  C  C63  1  0.50000057  0.52656148  0.94058689  1
  C  C64  1  0.49999951  0.55068269  0.50677177  1
  C  C65  1  0.49999996  0.55016252  0.62973761  1
  C  C66  1  0.50000019  0.55069935  0.75435167  1
  C  C67  1  0.50000031  0.55092886  0.87957885  1
  C  C68  1  0.49999948  0.59698465  0.50651810  1
  C  C69  1  0.49999991  0.59829304  0.62948668  1
  C  C70  1  0.50000012  0.59878593  0.75422905  1
  C  C71  1  0.50000025  0.59926965  0.87947080  1
  C  C72  1  0.49999976  0.62207099  0.56690697  1
  C  C73  1  0.49999990  0.62252063  0.69206141  1
  C  C74  1  0.50000012  0.62292522  0.81695055  1
  C  C75  1  0.50000051  0.62392186  0.94020811  1
  C  C76  1  0.49999977  0.67076027  0.56671646  1
  C  C77  1  0.49999989  0.67065069  0.69206007  1
  C  C78  1  0.50000010  0.67087973  0.81716548  1
  C  C79  1  0.50000052  0.67013194  0.94037881  1
  C  C80  1  0.49999953  0.69563943  0.50619003  1
  C  C81  1  0.49999992  0.69466214  0.62922206  1
  C  C82  1  0.50000010  0.69455505  0.75420177  1
  C  C83  1  0.50000023  0.69480455  0.87977977  1
  C  C84  1  0.49999947  0.74208417  0.50623467  1
  C  C85  1  0.49999993  0.74273981  0.62917993  1
  C  C86  1  0.50000011  0.74265993  0.75430283  1
  C  C87  1  0.50000024  0.74350065  0.88010997  1
  C  C88  1  0.49999974  0.76676699  0.56660943  1
  C  C89  1  0.49999990  0.76623676  0.69231872  1
  C  C90  1  0.50000011  0.76667022  0.81717933  1
  C  C91  1  0.50000050  0.76844085  0.94059839  1
  C  C92  1  0.49999973  0.81609371  0.56656881  1
  C  C93  1  0.49999987  0.81470049  0.69230896  1
  C  C94  1  0.50000015  0.81487573  0.81678616  1
  C  C95  1  0.50000058  0.81532464  0.94008140  1
  H  H96  1  0.49999947  0.87838540  0.51272963  1
  H  H97  1  0.49999987  0.87455151  0.63157428  1
  H  H98  1  0.50000004  0.87436927  0.75437919  1
  H  H99  1  0.50000043  0.87508948  0.87847090  1
  H  H100  1  0.49999962  0.12258958  -0.00014943  1
  H  H101  1  0.49999947  0.11702518  0.13490056  1
  H  H102  1  0.49999992  0.11834730  0.26437352  1
  H  H103  1  0.50000000  0.12286127  0.39278897  1
  H  H104  1  0.49999999  0.12724449  0.51518468  1
  H  H105  1  0.49999998  0.12952725  0.63799732  1
  H  H106  1  0.49999998  0.13064906  0.76093478  1
  H  H107  1  0.49999950  0.12856177  0.87982402  1
  H  H108  1  0.49999952  0.82785249  0.45719839  1
  H  H109  1  0.50000774  0.28625704  0.02753336  1
  H  H110  1  0.50000104  0.28488953  0.13676029  1
  H  H111  1  0.50000001  0.28618556  0.25721457  1
  H  H112  1  0.50000002  0.28987039  0.37748601  1
  H  H113  1  0.50000004  0.32403174  0.46174251  1
  H  H114  1  0.49999130  0.32554940  0.99322501  1
  H  H115  1  0.49999737  0.40174261  0.98940063  1
  H  H116  1  0.49999965  0.38843593  0.45914989  1
  H  H117  1  0.49999970  0.46899515  0.45855776  1
  H  H118  1  0.50000020  0.46327250  0.98940483  1
  H  H119  1  0.50000055  0.54395204  0.98921351  1
  H  H120  1  0.49999931  0.53340366  0.45802945  1
  H  H121  1  0.49999934  0.61400192  0.45757998  1
  H  H122  1  0.50000059  0.60665043  0.98890204  1
  H  H123  1  0.50000058  0.68730213  0.98922595  1
  H  H124  1  0.49999956  0.67850443  0.45734105  1
  H  H125  1  0.49999948  0.75955280  0.45757494  1
  H  H126  1  0.50000047  0.75140070  0.98953899  1
  H  H127  1  0.50000068  0.83353557  0.98824135  1
