# generated using pymatgen
data_H11C52
_symmetry_space_group_name_H-M   'P 1'
_cell_length_a   10.00000000
_cell_length_b   25.62946000
_cell_length_c   19.80091610
_cell_angle_alpha   90.00000000
_cell_angle_beta   90.00000000
_cell_angle_gamma   90.00000000
_symmetry_Int_Tables_number   1
_chemical_formula_structural   H11C52
_chemical_formula_sum   'H22 C104'
_cell_volume   5074.86787250
_cell_formula_units_Z   2
loop_
 _symmetry_equiv_pos_site_id
 _symmetry_equiv_pos_as_xyz
  1  'x, y, z'
loop_
 _atom_site_type_symbol
 _atom_site_label
 _atom_site_symmetry_multiplicity
 _atom_site_fract_x
 _atom_site_fract_y
 _atom_site_fract_z
 _atom_site_occupancy
  C  C0  1  0.50000000  0.80959016  0.50536873  1
  C  C1  1  0.50000000  0.80638113  0.62701109  1
  C  C2  1  0.50000000  0.80792536  0.74924780  1
  C  C3  1  0.50000000  0.81482388  0.87040776  1
  C  C4  1  0.50000000  0.17775993  0.52218291  1
  C  C5  1  0.50000000  0.19356853  0.63778455  1
  C  C6  1  0.50000000  0.19455394  0.75978801  1
  C  C7  1  0.50000000  0.19415455  0.88341669  1
  C  C8  1  0.50000000  0.21627406  0.57232260  1
  C  C9  1  0.50000000  0.22145281  0.69783043  1
  C  C10  1  0.50000000  0.22140616  0.82080556  1
  C  C11  1  0.50000000  0.22097707  0.94320153  1
  C  C12  1  0.50000000  0.27800822  0.07042014  1
  C  C13  1  0.50000000  0.27731585  0.19507800  1
  C  C14  1  0.50000000  0.27761729  0.32031874  1
  C  C15  1  0.50000000  0.27860931  0.44418228  1
  C  C16  1  0.50000000  0.27419389  0.56977489  1
  C  C17  1  0.50000000  0.27747338  0.69601210  1
  C  C18  1  0.50000000  0.27748843  0.82050499  1
  C  C19  1  0.50000000  0.27648480  0.94493515  1
  C  C20  1  0.50000000  0.30423443  0.00844193  1
  C  C21  1  0.50000000  0.30430095  0.13308780  1
  C  C22  1  0.50000000  0.30370906  0.25764772  1
  C  C23  1  0.50000000  0.30500156  0.38197314  1
  C  C24  1  0.50000000  0.30324821  0.50735488  1
  C  C25  1  0.50000000  0.30324237  0.63177368  1
  C  C26  1  0.50000000  0.30529664  0.75781887  1
  C  C27  1  0.50000000  0.30485821  0.88295698  1
  C  C28  1  0.50000000  0.36042885  0.00757449  1
  C  C29  1  0.50000000  0.36041435  0.13269527  1
  C  C30  1  0.50000000  0.36007629  0.25769063  1
  C  C31  1  0.50000000  0.36085091  0.38249193  1
  C  C32  1  0.50000000  0.35977039  0.50807970  1
  C  C33  1  0.50000000  0.35979269  0.63249486  1
  C  C34  1  0.50000000  0.36117832  0.75785205  1
  C  C35  1  0.50000000  0.36093081  0.88273510  1
  C  C36  1  0.50000000  0.38789546  0.07014689  1
  C  C37  1  0.50000000  0.38755661  0.19539169  1
  C  C38  1  0.50000000  0.38793337  0.31997550  1
  C  C39  1  0.50000000  0.38769781  0.44542720  1
  C  C40  1  0.50000000  0.38785815  0.57024115  1
  C  C41  1  0.50000000  0.38827884  0.69499488  1
  C  C42  1  0.50000000  0.38888180  0.82038697  1
  C  C43  1  0.50000000  0.38846155  0.94518178  1
  C  C44  1  0.50000000  0.44374123  0.06996040  1
  C  C45  1  0.50000000  0.44319430  0.19542462  1
  C  C46  1  0.50000000  0.44356605  0.32022686  1
  C  C47  1  0.50000000  0.44357611  0.44550715  1
  C  C48  1  0.50000000  0.44398755  0.57046201  1
  C  C49  1  0.50000000  0.44453800  0.69538905  1
  C  C50  1  0.50000000  0.44495387  0.82032217  1
  C  C51  1  0.50000000  0.44442203  0.94493301  1
  C  C52  1  0.50000000  0.47174566  0.00748432  1
  C  C53  1  0.50000000  0.47060482  0.13294235  1
  C  C54  1  0.50000000  0.47086844  0.25769985  1
  C  C55  1  0.50000000  0.47100344  0.38287963  1
  C  C56  1  0.50000000  0.47156208  0.50788834  1
  C  C57  1  0.50000000  0.47212432  0.63286395  1
  C  C58  1  0.50000000  0.47286678  0.75791550  1
  C  C59  1  0.50000000  0.47273726  0.88274843  1
  C  C60  1  0.50000000  0.52756828  0.00771279  1
  C  C61  1  0.50000000  0.52611983  0.13333003  1
  C  C62  1  0.50000000  0.52650952  0.25767989  1
  C  C63  1  0.50000000  0.52682604  0.38264244  1
  C  C64  1  0.50000000  0.52743088  0.50765680  1
  C  C65  1  0.50000000  0.52817159  0.63291398  1
  C  C66  1  0.50000000  0.52923600  0.75832191  1
  C  C67  1  0.50000000  0.52895205  0.88302714  1
  C  C68  1  0.50000000  0.55336478  0.07109716  1
  C  C69  1  0.50000000  0.55393910  0.19550873  1
  C  C70  1  0.50000000  0.55393373  0.32009617  1
  C  C71  1  0.50000000  0.55479733  0.44495567  1
  C  C72  1  0.50000000  0.55541759  0.57020271  1
  C  C73  1  0.50000000  0.55653034  0.69537919  1
  C  C74  1  0.50000000  0.55760857  0.82085807  1
  C  C75  1  0.50000000  0.55632821  0.94540221  1
  C  C76  1  0.50000000  0.60887757  0.07205744  1
  C  C77  1  0.50000000  0.61025078  0.19566735  1
  C  C78  1  0.50000000  0.60995452  0.31960251  1
  C  C79  1  0.50000000  0.61084177  0.44374737  1
  C  C80  1  0.50000000  0.61131265  0.56974793  1
  C  C81  1  0.50000000  0.61255570  0.69525649  1
  C  C82  1  0.50000000  0.61442563  0.82157665  1
  C  C83  1  0.50000000  0.61296446  0.94642644  1
  C  C84  1  0.50000000  0.63561906  0.01051360  1
  C  C85  1  0.50000000  0.63645020  0.13338733  1
  C  C86  1  0.50000000  0.63684134  0.25785434  1
  C  C87  1  0.50000000  0.63664857  0.38187504  1
  C  C88  1  0.50000000  0.63896027  0.50737619  1
  C  C89  1  0.50000000  0.63976246  0.63177882  1
  C  C90  1  0.50000000  0.64105369  0.75728974  1
  C  C91  1  0.50000000  0.64327319  0.88385252  1
  C  C92  1  0.50000000  0.69364836  0.50799444  1
  C  C93  1  0.50000000  0.69553048  0.63027453  1
  C  C94  1  0.50000000  0.69713585  0.75523521  1
  C  C95  1  0.50000000  0.70115043  0.88145472  1
  C  C96  1  0.50000000  0.72273902  0.56682242  1
  C  C97  1  0.50000000  0.72353933  0.69201730  1
  C  C98  1  0.50000000  0.72655952  0.81670087  1
  C  C99  1  0.50000000  0.73638012  0.93721716  1
  C  C100  1  0.50000000  0.78030133  0.56413782  1
  C  C101  1  0.50000000  0.77991100  0.68893715  1
  C  C102  1  0.50000000  0.78305555  0.81217215  1
  C  C103  1  0.50000000  0.79083796  0.93244144  1
  H  H104  1  0.50000000  0.85227693  0.50915072  1
  H  H105  1  0.50000000  0.84916154  0.62760939  1
  H  H106  1  0.50000000  0.85066632  0.74753283  1
  H  H107  1  0.50000000  0.85734896  0.86484044  1
  H  H108  1  0.50000000  0.13721653  0.53989335  1
  H  H109  1  0.50000000  0.15089095  0.64108755  1
  H  H110  1  0.50000000  0.15176162  0.75972036  1
  H  H111  1  0.50000000  0.15140992  0.88294816  1
  H  H112  1  0.50000000  0.79307491  0.45446743  1
  H  H113  1  0.50000000  0.18137634  0.46763763  1
  H  H114  1  0.50000000  0.19888256  0.99034416  1
  H  H115  1  0.50000000  0.23539015  0.07212779  1
  H  H116  1  0.50000000  0.23449060  0.19470300  1
  H  H117  1  0.50000000  0.23480243  0.32128819  1
  H  H118  1  0.50000000  0.23671021  0.44066106  1
  H  H119  1  0.50000000  0.67694311  0.01740113  1
  H  H120  1  0.50000000  0.67925313  0.13250543  1
  H  H121  1  0.50000000  0.67961599  0.25805860  1
  H  H122  1  0.50000000  0.67924233  0.37923401  1
  H  H123  1  0.50000000  0.71450641  0.46006737  1
  H  H124  1  0.50000000  0.72433227  0.98918476  1
  H  H125  1  0.50000000  0.81388527  0.97906258  1
