# generated using pymatgen
data_H7C24
_symmetry_space_group_name_H-M   'P 1'
_cell_length_a   10.00000000
_cell_length_b   29.89204000
_cell_length_c   19.77629687
_cell_angle_alpha   90.00000000
_cell_angle_beta   90.00000000
_cell_angle_gamma   90.00000000
_symmetry_Int_Tables_number   1
_chemical_formula_structural   H7C24
_chemical_formula_sum   'H28 C96'
_cell_volume   5911.53857217
_cell_formula_units_Z   4
loop_
 _symmetry_equiv_pos_site_id
 _symmetry_equiv_pos_as_xyz
  1  'x, y, z'
loop_
 _atom_site_type_symbol
 _atom_site_label
 _atom_site_symmetry_multiplicity
 _atom_site_fract_x
 _atom_site_fract_y
 _atom_site_fract_z
 _atom_site_occupancy
  C  C0  1  0.50000000  0.20083521  0.49138449  1
  C  C1  1  0.50000000  0.20107569  0.61400721  1
  C  C2  1  0.50000000  0.19811336  0.73790678  1
  C  C3  1  0.50000000  0.19425898  0.86239612  1
  C  C4  1  0.50000000  0.22454434  0.55154436  1
  C  C5  1  0.50000000  0.22260319  0.67714800  1
  C  C6  1  0.50000000  0.21935229  0.80142132  1
  C  C7  1  0.50000000  0.21585678  0.92444595  1
  C  C8  1  0.50000000  0.27379780  0.55470405  1
  C  C9  1  0.50000000  0.27103923  0.68014882  1
  C  C10  1  0.50000000  0.26752556  0.80473300  1
  C  C11  1  0.50000000  0.26271478  0.92778341  1
  C  C12  1  0.50000000  0.29999253  0.49585115  1
  C  C13  1  0.50000000  0.29617319  0.61858291  1
  C  C14  1  0.50000000  0.29307849  0.74337924  1
  C  C15  1  0.50000000  0.28921578  0.86889355  1
  C  C16  1  0.50000000  0.34634927  0.49858399  1
  C  C17  1  0.50000000  0.34417360  0.62156378  1
  C  C18  1  0.50000000  0.34114463  0.74617840  1
  C  C19  1  0.50000000  0.33793725  0.87141901  1
  C  C20  1  0.50000000  0.36954136  0.56059028  1
  C  C21  1  0.50000000  0.36659786  0.68567236  1
  C  C22  1  0.50000000  0.36333980  0.81024721  1
  C  C23  1  0.50000000  0.36124481  0.93324282  1
  C  C24  1  0.50000000  0.41805974  0.56372302  1
  C  C25  1  0.50000000  0.41471635  0.68862295  1
  C  C26  1  0.50000000  0.41125721  0.81276321  1
  C  C27  1  0.50000000  0.40746630  0.93562603  1
  C  C28  1  0.50000000  0.44435135  0.50465682  1
  C  C29  1  0.50000000  0.44032712  0.62751920  1
  C  C30  1  0.50000000  0.43718559  0.75192910  1
  C  C31  1  0.50000000  0.43346679  0.87621516  1
  C  C32  1  0.50000000  0.49050219  0.50762435  1
  C  C33  1  0.50000000  0.48829144  0.63065404  1
  C  C34  1  0.50000000  0.48545761  0.75495779  1
  C  C35  1  0.50000000  0.48172052  0.87854530  1
  C  C36  1  0.50000000  0.51353621  0.56984342  1
  C  C37  1  0.50000000  0.51093337  0.69468917  1
  C  C38  1  0.50000000  0.50818853  0.81890380  1
  C  C39  1  0.50000000  0.50439106  0.94034147  1
  C  C40  1  0.50000000  0.56195401  0.57333728  1
  C  C41  1  0.50000000  0.55901904  0.69819732  1
  C  C42  1  0.50000000  0.55653901  0.82297544  1
  C  C43  1  0.50000000  0.55022956  0.94393597  1
  C  C44  1  0.50000000  0.58748104  0.51452251  1
  C  C45  1  0.50000000  0.58427999  0.63719117  1
  C  C46  1  0.50000000  0.58185640  0.76174851  1
  C  C47  1  0.50000000  0.57936860  0.88734681  1
  C  C48  1  0.50000000  0.63610560  0.02000380  1
  C  C49  1  0.50000000  0.63741681  0.14274201  1
  C  C50  1  0.50000000  0.63772587  0.26628844  1
  C  C51  1  0.50000000  0.63729046  0.38952982  1
  C  C52  1  0.50000000  0.63409541  0.51468183  1
  C  C53  1  0.50000000  0.63204387  0.63917922  1
  C  C54  1  0.50000000  0.62991187  0.76472524  1
  C  C55  1  0.50000000  0.62841094  0.89142266  1
  C  C56  1  0.50000000  0.66024077  0.08104172  1
  C  C57  1  0.50000000  0.66058980  0.20431358  1
  C  C58  1  0.50000000  0.66073253  0.32764090  1
  C  C59  1  0.50000000  0.65888955  0.45140390  1
  C  C60  1  0.50000000  0.65701719  0.57754554  1
  C  C61  1  0.50000000  0.65472603  0.70293488  1
  C  C62  1  0.50000000  0.65284600  0.82924955  1
  C  C63  1  0.50000000  0.65436209  0.95513312  1
  C  C64  1  0.50000000  0.70799065  0.07954424  1
  C  C65  1  0.50000000  0.70904486  0.20390559  1
  C  C66  1  0.50000000  0.70899407  0.32829258  1
  C  C67  1  0.50000000  0.70714772  0.45306426  1
  C  C68  1  0.50000000  0.70494709  0.57841096  1
  C  C69  1  0.50000000  0.70268026  0.70349689  1
  C  C70  1  0.50000000  0.70148784  0.82891069  1
  C  C71  1  0.50000000  0.70328405  0.95384635  1
  C  C72  1  0.50000000  0.72897803  0.01553452  1
  C  C73  1  0.50000000  0.73227282  0.14132029  1
  C  C74  1  0.50000000  0.73280158  0.26607637  1
  C  C75  1  0.50000000  0.73172926  0.39115524  1
  C  C76  1  0.50000000  0.72961282  0.51622195  1
  C  C77  1  0.50000000  0.72734484  0.64149167  1
  C  C78  1  0.50000000  0.72550719  0.76664874  1
  C  C79  1  0.50000000  0.72599874  0.89109073  1
  C  C80  1  0.50000000  0.77750892  0.01479255  1
  C  C81  1  0.50000000  0.78063515  0.14048993  1
  C  C82  1  0.50000000  0.78129443  0.26611620  1
  C  C83  1  0.50000000  0.78021933  0.39181987  1
  C  C84  1  0.50000000  0.77805767  0.51711399  1
  C  C85  1  0.50000000  0.77583709  0.64207613  1
  C  C86  1  0.50000000  0.77408867  0.76654882  1
  C  C87  1  0.50000000  0.77458373  0.89057107  1
  C  C88  1  0.50000000  0.80170742  0.07648634  1
  C  C89  1  0.50000000  0.80379687  0.20305476  1
  C  C90  1  0.50000000  0.80350567  0.32943248  1
  C  C91  1  0.50000000  0.80191142  0.45528685  1
  C  C92  1  0.50000000  0.79969732  0.58050818  1
  C  C93  1  0.50000000  0.79772970  0.70493067  1
  C  C94  1  0.50000000  0.79713850  0.82829150  1
  C  C95  1  0.50000000  0.79892560  0.95155473  1
  H  H96  1  0.50000000  0.16418356  0.49223856  1
  H  H97  1  0.50000000  0.16438630  0.61276139  1
  H  H98  1  0.50000000  0.16143332  0.73569771  1
  H  H99  1  0.50000000  0.15763510  0.85954937  1
  H  H100  1  0.50000000  0.83838829  0.07401880  1
  H  H101  1  0.50000000  0.84050328  0.20274370  1
  H  H102  1  0.50000000  0.84022061  0.33022293  1
  H  H103  1  0.50000000  0.83859831  0.45683785  1
  H  H104  1  0.50000000  0.83637708  0.58215445  1
  H  H105  1  0.50000000  0.83441255  0.70633320  1
  H  H106  1  0.50000000  0.83382668  0.82807129  1
  H  H107  1  0.50000000  0.83558995  0.94912887  1
  H  H108  1  0.50000000  0.21688888  0.44173302  1
  H  H109  1  0.50000000  0.19641069  0.97143615  1
  H  H110  1  0.50000000  0.27850510  0.97763463  1
  H  H111  1  0.50000000  0.28381018  0.44623966  1
  H  H112  1  0.50000000  0.36480193  0.45087360  1
  H  H113  1  0.50000000  0.34295205  0.98108387  1
  H  H114  1  0.50000000  0.42356291  0.98520425  1
  H  H115  1  0.50000000  0.42844204  0.45491457  1
  H  H116  1  0.50000000  0.50876547  0.45976116  1
  H  H117  1  0.50000000  0.48603980  0.98810049  1
  H  H118  1  0.50000000  0.56210815  0.99503711  1
  H  H119  1  0.50000000  0.57019121  0.46615709  1
  H  H120  1  0.50000000  0.60084810  0.02995577  1
  H  H121  1  0.50000000  0.60071901  0.14326292  1
  H  H122  1  0.50000000  0.60104543  0.26628533  1
  H  H123  1  0.50000000  0.60077254  0.38627154  1
