# generated using pymatgen
data_HC4
_symmetry_space_group_name_H-M   'P 1'
_cell_length_a   10.00000000
_cell_length_b   25.62946000
_cell_length_c   19.77599480
_cell_angle_alpha   90.00000000
_cell_angle_beta   90.00000000
_cell_angle_gamma   90.00000000
_symmetry_Int_Tables_number   1
_chemical_formula_structural   HC4
_chemical_formula_sum   'H22 C88'
_cell_volume   5068.48067614
_cell_formula_units_Z   22
loop_
 _symmetry_equiv_pos_site_id
 _symmetry_equiv_pos_as_xyz
  1  'x, y, z'
loop_
 _atom_site_type_symbol
 _atom_site_label
 _atom_site_symmetry_multiplicity
 _atom_site_fract_x
 _atom_site_fract_y
 _atom_site_fract_z
 _atom_site_occupancy
  C  C0  1  0.50000000  0.22172495  0.52273979  1
  C  C1  1  0.50000000  0.22980342  0.64457667  1
  C  C2  1  0.50000000  0.23420454  0.76717295  1
  C  C3  1  0.50000000  0.23641710  0.89127362  1
  C  C4  1  0.50000000  0.25310247  0.57976913  1
  C  C5  1  0.50000000  0.25938318  0.70412946  1
  C  C6  1  0.50000000  0.26242977  0.82793786  1
  C  C7  1  0.50000000  0.26483453  0.95086997  1
  C  C8  1  0.50000000  0.31044936  0.57767977  1
  C  C9  1  0.50000000  0.31598990  0.70146362  1
  C  C10  1  0.50000000  0.31855812  0.82568071  1
  C  C11  1  0.50000000  0.31949548  0.94877437  1
  C  C12  1  0.50000000  0.33691031  0.51637016  1
  C  C13  1  0.50000000  0.34171525  0.63731925  1
  C  C14  1  0.50000000  0.34512609  0.76178010  1
  C  C15  1  0.50000000  0.34698906  0.88713125  1
  C  C16  1  0.50000000  0.39065685  0.51307130  1
  C  C17  1  0.50000000  0.39822660  0.63374301  1
  C  C18  1  0.50000000  0.40123524  0.75869683  1
  C  C19  1  0.50000000  0.40375419  0.88384914  1
  C  C20  1  0.50000000  0.42479166  0.56950602  1
  C  C21  1  0.50000000  0.42771486  0.69526660  1
  C  C22  1  0.50000000  0.43018592  0.82009236  1
  C  C23  1  0.50000000  0.43318348  0.94270139  1
  C  C24  1  0.50000000  0.49053982  0.06824759  1
  C  C25  1  0.50000000  0.49088151  0.19185056  1
  C  C26  1  0.50000000  0.49101404  0.31576535  1
  C  C27  1  0.50000000  0.49064652  0.43835139  1
  C  C28  1  0.50000000  0.48222113  0.56618955  1
  C  C29  1  0.50000000  0.48388665  0.69279691  1
  C  C30  1  0.50000000  0.48589498  0.81838889  1
  C  C31  1  0.50000000  0.48760955  0.94292685  1
  C  C32  1  0.50000000  0.51609718  0.00642048  1
  C  C33  1  0.50000000  0.51765523  0.13030421  1
  C  C34  1  0.50000000  0.51760204  0.25384847  1
  C  C35  1  0.50000000  0.51821956  0.37720800  1
  C  C36  1  0.50000000  0.51249977  0.50291300  1
  C  C37  1  0.50000000  0.51078268  0.62848711  1
  C  C38  1  0.50000000  0.51269063  0.75471811  1
  C  C39  1  0.50000000  0.51470439  0.88026870  1
  C  C40  1  0.50000000  0.57219335  0.00514969  1
  C  C41  1  0.50000000  0.57377929  0.12981641  1
  C  C42  1  0.50000000  0.57394899  0.25407326  1
  C  C43  1  0.50000000  0.57374310  0.37835104  1
  C  C44  1  0.50000000  0.56936102  0.50405890  1
  C  C45  1  0.50000000  0.56754595  0.62893682  1
  C  C46  1  0.50000000  0.56865205  0.75442448  1
  C  C47  1  0.50000000  0.57053346  0.87979313  1
  C  C48  1  0.50000000  0.60061822  0.06724611  1
  C  C49  1  0.50000000  0.60155433  0.19199414  1
  C  C50  1  0.50000000  0.60147762  0.31631216  1
  C  C51  1  0.50000000  0.59889599  0.44203008  1
  C  C52  1  0.50000000  0.59628765  0.56670458  1
  C  C53  1  0.50000000  0.59576846  0.69137338  1
  C  C54  1  0.50000000  0.59712952  0.81682693  1
  C  C55  1  0.50000000  0.59895971  0.94225957  1
  C  C56  1  0.50000000  0.65662173  0.06696881  1
  C  C57  1  0.50000000  0.65749255  0.19202323  1
  C  C58  1  0.50000000  0.65720352  0.31682313  1
  C  C59  1  0.50000000  0.65493795  0.44237107  1
  C  C60  1  0.50000000  0.65266141  0.56702567  1
  C  C61  1  0.50000000  0.65211191  0.69167311  1
  C  C62  1  0.50000000  0.65318075  0.81669186  1
  C  C63  1  0.50000000  0.65492066  0.94187586  1
  C  C64  1  0.50000000  0.68336317  0.00405241  1
  C  C65  1  0.50000000  0.68463762  0.12929190  1
  C  C66  1  0.50000000  0.68505290  0.25451475  1
  C  C67  1  0.50000000  0.68346265  0.38013500  1
  C  C68  1  0.50000000  0.68143690  0.50520381  1
  C  C69  1  0.50000000  0.68002211  0.62955142  1
  C  C70  1  0.50000000  0.68011118  0.75398476  1
  C  C71  1  0.50000000  0.68156484  0.87884572  1
  C  C72  1  0.50000000  0.73984930  0.00369479  1
  C  C73  1  0.50000000  0.74112395  0.12912550  1
  C  C74  1  0.50000000  0.74148941  0.25472962  1
  C  C75  1  0.50000000  0.73994883  0.38042479  1
  C  C76  1  0.50000000  0.73794938  0.50544074  1
  C  C77  1  0.50000000  0.73658999  0.62977597  1
  C  C78  1  0.50000000  0.73660737  0.75399734  1
  C  C79  1  0.50000000  0.73806694  0.87862612  1
  C  C80  1  0.50000000  0.76702729  0.06601004  1
  C  C81  1  0.50000000  0.76788469  0.19181646  1
  C  C82  1  0.50000000  0.76720557  0.31806023  1
  C  C83  1  0.50000000  0.76553236  0.44359658  1
  C  C84  1  0.50000000  0.76392779  0.56805420  1
  C  C85  1  0.50000000  0.76326330  0.69187752  1
  C  C86  1  0.50000000  0.76393406  0.81586719  1
  C  C87  1  0.50000000  0.76554369  0.94059536  1
  H  H88  1  0.50000000  0.17919382  0.52864347  1
  H  H89  1  0.50000000  0.18711712  0.64846880  1
  H  H90  1  0.50000000  0.19142430  0.76870549  1
  H  H91  1  0.50000000  0.19365040  0.89187585  1
  H  H92  1  0.50000000  0.80983785  0.06517074  1
  H  H93  1  0.50000000  0.81070211  0.19161441  1
  H  H94  1  0.50000000  0.81000500  0.31925602  1
  H  H95  1  0.50000000  0.80832774  0.44509512  1
  H  H96  1  0.50000000  0.80671086  0.56905888  1
  H  H97  1  0.50000000  0.80605345  0.69173249  1
  H  H98  1  0.50000000  0.80671242  0.81472326  1
  H  H99  1  0.50000000  0.80834020  0.93939767  1
  H  H100  1  0.50000000  0.23684256  0.47107687  1
  H  H101  1  0.50000000  0.24484774  0.99986786  1
  H  H102  1  0.50000000  0.34057504  0.99679206  1
  H  H103  1  0.50000000  0.31555213  0.46849867  1
  H  H104  1  0.50000000  0.40404388  0.46178838  1
  H  H105  1  0.50000000  0.41282331  0.99093711  1
  H  H106  1  0.50000000  0.44793843  0.07107336  1
  H  H107  1  0.50000000  0.44814291  0.19181492  1
  H  H108  1  0.50000000  0.44820783  0.31592114  1
  H  H109  1  0.50000000  0.44952373  0.42908420  1
