# generated using pymatgen
data_H7C24
_symmetry_space_group_name_H-M   'P 1'
_cell_length_a   10.00000000
_cell_length_b   29.89204000
_cell_length_c   19.82744098
_cell_angle_alpha   90.00000000
_cell_angle_beta   90.00000000
_cell_angle_gamma   90.00000000
_symmetry_Int_Tables_number   1
_chemical_formula_structural   H7C24
_chemical_formula_sum   'H28 C96'
_cell_volume   5926.82658895
_cell_formula_units_Z   4
loop_
 _symmetry_equiv_pos_site_id
 _symmetry_equiv_pos_as_xyz
  1  'x, y, z'
loop_
 _atom_site_type_symbol
 _atom_site_label
 _atom_site_symmetry_multiplicity
 _atom_site_fract_x
 _atom_site_fract_y
 _atom_site_fract_z
 _atom_site_occupancy
  C  C0  1  0.50000047  0.18651942  0.56107107  1
  C  C1  1  0.49999985  0.20114088  0.67599038  1
  C  C2  1  0.50000000  0.20257560  0.79729028  1
  C  C3  1  0.50000002  0.20203159  0.92007564  1
  C  C4  1  0.50000011  0.22006328  0.61034666  1
  C  C5  1  0.49999985  0.22548382  0.73549786  1
  C  C6  1  0.49999988  0.22572295  0.85791910  1
  C  C7  1  0.49999951  0.22489004  0.97968549  1
  C  C8  1  0.49999803  0.27263023  0.10663015  1
  C  C9  1  0.49999888  0.27088033  0.23168890  1
  C  C10  1  0.49999978  0.27119812  0.35695790  1
  C  C11  1  0.49999983  0.27243156  0.48111689  1
  C  C12  1  0.50000008  0.26970309  0.60712670  1
  C  C13  1  0.49999991  0.27350097  0.73341710  1
  C  C14  1  0.49999918  0.27388919  0.85760615  1
  C  C15  1  0.49999817  0.27253250  0.98141895  1
  C  C16  1  0.49999728  0.29573792  0.04506390  1
  C  C17  1  0.49999689  0.29421841  0.16996263  1
  C  C18  1  0.49999903  0.29350981  0.29417330  1
  C  C19  1  0.49999987  0.29468390  0.41852394  1
  C  C20  1  0.50000001  0.29397283  0.54396572  1
  C  C21  1  0.50000007  0.29496647  0.66875814  1
  C  C22  1  0.49999966  0.29771636  0.79504150  1
  C  C23  1  0.49999751  0.29740153  0.91994388  1
  C  C24  1  0.49999582  0.34397915  0.04449953  1
  C  C25  1  0.49999543  0.34227926  0.17007230  1
  C  C26  1  0.49999869  0.34200004  0.29413284  1
  C  C27  1  0.49999984  0.34268894  0.41863269  1
  C  C28  1  0.50000006  0.34242784  0.54410020  1
  C  C29  1  0.50000008  0.34346029  0.66906178  1
  C  C30  1  0.50000011  0.34586006  0.79506470  1
  C  C31  1  0.49999645  0.34578474  0.91981398  1
  C  C32  1  0.49999555  0.36573552  0.10805474  1
  C  C33  1  0.49999787  0.36583808  0.23226764  1
  C  C34  1  0.49999934  0.36572189  0.35619431  1
  C  C35  1  0.49999998  0.36592017  0.48122230  1
  C  C36  1  0.50000007  0.36667839  0.60637975  1
  C  C37  1  0.50000012  0.36830976  0.73146197  1
  C  C38  1  0.49999990  0.37005987  0.85735404  1
  C  C39  1  0.49999551  0.36901037  0.98227997  1
  C  C40  1  0.50000937  0.41340665  0.10902800  1
  C  C41  1  0.49999997  0.41430451  0.23252365  1
  C  C42  1  0.49999909  0.41380662  0.35593550  1
  C  C43  1  0.49999995  0.41401733  0.47999406  1
  C  C44  1  0.50000015  0.41466225  0.60600597  1
  C  C45  1  0.50000008  0.41640310  0.73118973  1
  C  C46  1  0.50000046  0.41871553  0.85744466  1
  C  C47  1  0.50000725  0.41779001  0.98305924  1
  C  C48  1  0.50003259  0.43671165  0.04750717  1
  C  C49  1  0.50000814  0.43684201  0.17026107  1
  C  C50  1  0.49999913  0.43706611  0.29461629  1
  C  C51  1  0.49999966  0.43632433  0.41849273  1
  C  C52  1  0.50000005  0.43807359  0.54356777  1
  C  C53  1  0.50000035  0.43939977  0.66774762  1
  C  C54  1  0.50000045  0.44144331  0.79288957  1
  C  C55  1  0.50000042  0.44342710  0.91936809  1
  C  C56  1  0.49999983  0.48461737  0.54384117  1
  C  C57  1  0.50000073  0.48721597  0.66603100  1
  C  C58  1  0.50000344  0.48960500  0.79010763  1
  C  C59  1  0.49999182  0.49245832  0.91543557  1
  C  C60  1  0.50000001  0.50982148  0.60259311  1
  C  C61  1  0.50000254  0.51249836  0.72681247  1
  C  C62  1  0.50000324  0.51508432  0.85116099  1
  C  C63  1  0.49996629  0.52180478  0.97175585  1
  C  C64  1  0.49999997  0.55822256  0.59896574  1
  C  C65  1  0.50000201  0.56065198  0.72339171  1
  C  C66  1  0.50000507  0.56351680  0.84724684  1
  C  C67  1  0.49998752  0.56764150  0.96817433  1
  C  C68  1  0.49999980  0.58119531  0.53689060  1
  C  C69  1  0.50000043  0.58340413  0.65956253  1
  C  C70  1  0.50000350  0.58613446  0.78348885  1
  C  C71  1  0.50000674  0.59022628  0.90660789  1
  C  C72  1  0.49999974  0.62736872  0.53382240  1
  C  C73  1  0.50000010  0.63136297  0.65630571  1
  C  C74  1  0.50000248  0.63447340  0.78047933  1
  C  C75  1  0.50000638  0.63858846  0.90445996  1
  C  C76  1  0.49999972  0.65363457  0.59261331  1
  C  C77  1  0.50000067  0.65680909  0.71735253  1
  C  C78  1  0.50000337  0.66062521  0.84109196  1
  C  C79  1  0.50000420  0.66475257  0.96359638  1
  C  C80  1  0.49999971  0.70231672  0.58919564  1
  C  C81  1  0.50000011  0.70494233  0.71435197  1
  C  C82  1  0.50000119  0.70860219  0.83853544  1
  C  C83  1  0.50000139  0.71108843  0.96099974  1
  C  C84  1  0.49999973  0.72549587  0.52732625  1
  C  C85  1  0.49999976  0.72725624  0.65034879  1
  C  C86  1  0.50000017  0.73036492  0.77443509  1
  C  C87  1  0.50000071  0.73417923  0.89942752  1
  C  C88  1  0.49999984  0.77237364  0.52493330  1
  C  C89  1  0.49999981  0.77545420  0.64773599  1
  C  C90  1  0.49999980  0.77878372  0.77161204  1
  C  C91  1  0.49999996  0.78341534  0.89674775  1
  C  C92  1  0.49999988  0.79720205  0.58402760  1
  C  C93  1  0.49999983  0.79999855  0.70829518  1
  C  C94  1  0.49999977  0.80353737  0.83182337  1
  C  C95  1  0.50000005  0.81013554  0.95380813  1
  H  H96  1  0.50000023  0.15198990  0.57992100  1
  H  H97  1  0.49999985  0.16457495  0.67990185  1
  H  H98  1  0.50000007  0.16590425  0.79714634  1
  H  H99  1  0.50000045  0.16536947  0.91885792  1
  H  H100  1  0.49999998  0.83387100  0.58243971  1
  H  H101  1  0.49999997  0.83667116  0.70614436  1
  H  H102  1  0.49999973  0.84016803  0.82863280  1
  H  H103  1  0.49999993  0.84661225  0.94851531  1
  H  H104  1  0.50000125  0.18905816  0.50650529  1
  H  H105  1  0.49999988  0.20602501  0.02684224  1
  H  H106  1  0.49999972  0.23607603  0.10732189  1
  H  H107  1  0.50000056  0.23418675  0.23106399  1
  H  H108  1  0.50000004  0.23447275  0.35785381  1
  H  H109  1  0.49999935  0.23643971  0.47822544  1
  H  H110  1  0.50009162  0.47200665  0.05650880  1
  H  H111  1  0.50001060  0.47355585  0.16959100  1
  H  H112  1  0.50000020  0.47375034  0.29519612  1
  H  H113  1  0.49999985  0.47285922  0.41623180  1
  H  H114  1  0.49999969  0.50211846  0.49582721  1
  H  H115  1  0.49990818  0.51052004  0.02299226  1
  H  H116  1  0.49997765  0.58597340  0.01584073  1
  H  H117  1  0.49999986  0.56283829  0.48925391  1
  H  H118  1  0.49999981  0.64331241  0.48421994  1
  H  H119  1  0.50000438  0.64875226  0.01314521  1
  H  H120  1  0.49999999  0.72967237  0.00853849  1
  H  H121  1  0.49999970  0.70707984  0.47965461  1
  H  H122  1  0.49999989  0.78932777  0.47589779  1
  H  H123  1  0.50000041  0.79682637  0.00517121  1
