# generated using pymatgen
data_HC4
_symmetry_space_group_name_H-M   'P 1'
_cell_length_a   10.00000000
_cell_length_b   25.62946000
_cell_length_c   19.77569380
_cell_angle_alpha   90.00000000
_cell_angle_beta   90.00000000
_cell_angle_gamma   90.00000000
_symmetry_Int_Tables_number   1
_chemical_formula_structural   HC4
_chemical_formula_sum   'H24 C96'
_cell_volume   5068.40353176
_cell_formula_units_Z   24
loop_
 _symmetry_equiv_pos_site_id
 _symmetry_equiv_pos_as_xyz
  1  'x, y, z'
loop_
 _atom_site_type_symbol
 _atom_site_label
 _atom_site_symmetry_multiplicity
 _atom_site_fract_x
 _atom_site_fract_y
 _atom_site_fract_z
 _atom_site_occupancy
  C  C0  1  0.50000000  0.80785818  0.49737208  1
  C  C1  1  0.50000000  0.80681059  0.61978594  1
  C  C2  1  0.50000000  0.81019133  0.74334915  1
  C  C3  1  0.50000000  0.81439808  0.86791318  1
  C  C4  1  0.50000000  0.19256957  0.00970484  1
  C  C5  1  0.50000000  0.19071199  0.13520544  1
  C  C6  1  0.50000000  0.18988223  0.26158917  1
  C  C7  1  0.50000000  0.19066684  0.38753436  1
  C  C8  1  0.50000000  0.19223238  0.51309914  1
  C  C9  1  0.50000000  0.19407341  0.63776701  1
  C  C10  1  0.50000000  0.19487052  0.76164130  1
  C  C11  1  0.50000000  0.19421958  0.88533883  1
  C  C12  1  0.50000000  0.21807771  0.07290312  1
  C  C13  1  0.50000000  0.21631245  0.19862223  1
  C  C14  1  0.50000000  0.21655291  0.32437266  1
  C  C15  1  0.50000000  0.21783630  0.44991677  1
  C  C16  1  0.50000000  0.21983899  0.57495718  1
  C  C17  1  0.50000000  0.22149084  0.69954322  1
  C  C18  1  0.50000000  0.22157819  0.82366942  1
  C  C19  1  0.50000000  0.22017682  0.94793115  1
  C  C20  1  0.50000000  0.27455373  0.07326255  1
  C  C21  1  0.50000000  0.27274664  0.19888716  1
  C  C22  1  0.50000000  0.27302122  0.32418727  1
  C  C23  1  0.50000000  0.27433474  0.44950112  1
  C  C24  1  0.50000000  0.27632268  0.57461218  1
  C  C25  1  0.50000000  0.27795619  0.69948130  1
  C  C26  1  0.50000000  0.27813186  0.82388149  1
  C  C27  1  0.50000000  0.27666977  0.94821914  1
  C  C28  1  0.50000000  0.30312822  0.01105092  1
  C  C29  1  0.50000000  0.30071427  0.13659925  1
  C  C30  1  0.50000000  0.30021709  0.26144221  1
  C  C31  1  0.50000000  0.30100432  0.38653503  1
  C  C32  1  0.50000000  0.30292079  0.51156729  1
  C  C33  1  0.50000000  0.30477449  0.63669597  1
  C  C34  1  0.50000000  0.30599664  0.76174897  1
  C  C35  1  0.50000000  0.30545619  0.88641851  1
  C  C36  1  0.50000000  0.35916897  0.01136594  1
  C  C37  1  0.50000000  0.35646921  0.13707348  1
  C  C38  1  0.50000000  0.35616462  0.26143151  1
  C  C39  1  0.50000000  0.35704571  0.38621619  1
  C  C40  1  0.50000000  0.35887806  0.51111359  1
  C  C41  1  0.50000000  0.36082509  0.63644337  1
  C  C42  1  0.50000000  0.36231117  0.76190374  1
  C  C43  1  0.50000000  0.36179875  0.88664453  1
  C  C44  1  0.50000000  0.38429822  0.07506047  1
  C  C45  1  0.50000000  0.38390121  0.19938303  1
  C  C46  1  0.50000000  0.38389020  0.32360126  1
  C  C47  1  0.50000000  0.38555137  0.44823296  1
  C  C48  1  0.50000000  0.38741880  0.57350873  1
  C  C49  1  0.50000000  0.38936637  0.69878367  1
  C  C50  1  0.50000000  0.39047152  0.82429914  1
  C  C51  1  0.50000000  0.38871264  0.94930867  1
  C  C52  1  0.50000000  0.43984842  0.07624049  1
  C  C53  1  0.50000000  0.44027289  0.19962578  1
  C  C54  1  0.50000000  0.44002066  0.32301898  1
  C  C55  1  0.50000000  0.44163990  0.44686279  1
  C  C56  1  0.50000000  0.44322841  0.57299778  1
  C  C57  1  0.50000000  0.44528413  0.69846228  1
  C  C58  1  0.50000000  0.44719829  0.82473070  1
  C  C59  1  0.50000000  0.44556247  0.95046052  1
  C  C60  1  0.50000000  0.46738072  0.01502338  1
  C  C61  1  0.50000000  0.46693932  0.13775015  1
  C  C62  1  0.50000000  0.46700532  0.26161280  1
  C  C63  1  0.50000000  0.46709081  0.38506297  1
  C  C64  1  0.50000000  0.47028922  0.51025143  1
  C  C65  1  0.50000000  0.47211870  0.63484051  1
  C  C66  1  0.50000000  0.47415481  0.76036901  1
  C  C67  1  0.50000000  0.47579347  0.88697073  1
  C  C68  1  0.50000000  0.52465783  0.51042409  1
  C  C69  1  0.50000000  0.52787039  0.63301220  1
  C  C70  1  0.50000000  0.53030826  0.75764280  1
  C  C71  1  0.50000000  0.53306739  0.88331498  1
  C  C72  1  0.50000000  0.55422152  0.56930910  1
  C  C73  1  0.50000000  0.55711869  0.69419283  1
  C  C74  1  0.50000000  0.55976358  0.81904519  1
  C  C75  1  0.50000000  0.56712451  0.93988682  1
  C  C76  1  0.50000000  0.61081286  0.56589110  1
  C  C77  1  0.50000000  0.61328504  0.69094132  1
  C  C78  1  0.50000000  0.61624219  0.81537823  1
  C  C79  1  0.50000000  0.62066061  0.93659978  1
  C  C80  1  0.50000000  0.63791415  0.50391243  1
  C  C81  1  0.50000000  0.63997687  0.62689512  1
  C  C82  1  0.50000000  0.64259509  0.75142887  1
  C  C83  1  0.50000000  0.64720200  0.87512192  1
  C  C84  1  0.50000000  0.69195696  0.50121398  1
  C  C85  1  0.50000000  0.69594540  0.62389810  1
  C  C86  1  0.50000000  0.69895741  0.74862907  1
  C  C87  1  0.50000000  0.70381009  0.87326460  1
  C  C88  1  0.50000000  0.72227946  0.56018357  1
  C  C89  1  0.50000000  0.72495038  0.68556668  1
  C  C90  1  0.50000000  0.72919113  0.80955115  1
  C  C91  1  0.50000000  0.73424614  0.93258078  1
  C  C92  1  0.50000000  0.77971993  0.55719084  1
  C  C93  1  0.50000000  0.78148904  0.68274860  1
  C  C94  1  0.50000000  0.78538759  0.80669764  1
  C  C95  1  0.50000000  0.78888600  0.92974657  1
  H  H96  1  0.50000000  0.85060200  0.49919400  1
  H  H97  1  0.50000000  0.84959675  0.61871230  1
  H  H98  1  0.50000000  0.85295019  0.74117400  1
  H  H99  1  0.50000000  0.85714603  0.86570900  1
  H  H100  1  0.50000000  0.14979134  0.00801140  1
  H  H101  1  0.50000000  0.14791433  0.13381412  1
  H  H102  1  0.50000000  0.14708537  0.26167781  1
  H  H103  1  0.50000000  0.14786202  0.38856014  1
  H  H104  1  0.50000000  0.14943438  0.51453850  1
  H  H105  1  0.50000000  0.15129373  0.63905932  1
  H  H106  1  0.50000000  0.15209678  0.76175205  1
  H  H107  1  0.50000000  0.15145284  0.88427820  1
  H  H108  1  0.50000000  0.78983389  0.44727232  1
  H  H109  1  0.50000000  0.50853341  0.02402085  1
  H  H110  1  0.50000000  0.50972879  0.13789828  1
  H  H111  1  0.50000000  0.50979776  0.26173683  1
  H  H112  1  0.50000000  0.50963736  0.38205630  1
  H  H113  1  0.50000000  0.54500303  0.46221271  1
  H  H114  1  0.50000000  0.55370741  0.99111364  1
  H  H115  1  0.50000000  0.64198378  0.98444124  1
  H  H116  1  0.50000000  0.61672537  0.45595723  1
  H  H117  1  0.50000000  0.71087387  0.45163657  1
  H  H118  1  0.50000000  0.71551890  0.98222083  1
  H  H119  1  0.50000000  0.81129254  0.97694823  1
