# generated using pymatgen
data_H5C12
_symmetry_space_group_name_H-M   'P 1'
_cell_length_a   10.00000000
_cell_length_b   17.10430000
_cell_length_c   19.84313472
_cell_angle_alpha   90.00000000
_cell_angle_beta   90.00000000
_cell_angle_gamma   90.00000000
_symmetry_Int_Tables_number   1
_chemical_formula_structural   H5C12
_chemical_formula_sum   'H20 C48'
_cell_volume   3394.02929190
_cell_formula_units_Z   4
loop_
 _symmetry_equiv_pos_site_id
 _symmetry_equiv_pos_as_xyz
  1  'x, y, z'
loop_
 _atom_site_type_symbol
 _atom_site_label
 _atom_site_symmetry_multiplicity
 _atom_site_fract_x
 _atom_site_fract_y
 _atom_site_fract_z
 _atom_site_occupancy
  C  C0  1  0.50000001  0.73140811  0.51285317  1
  C  C1  1  0.49999999  0.70793543  0.62808262  1
  C  C2  1  0.49999999  0.70658856  0.74999298  1
  C  C3  1  0.50000000  0.70758545  0.87396469  1
  C  C4  1  0.50000001  0.26859189  0.51285317  1
  C  C5  1  0.49999999  0.29206457  0.62808262  1
  C  C6  1  0.49999999  0.29341144  0.74999298  1
  C  C7  1  0.50000000  0.29241455  0.87396469  1
  C  C8  1  0.50000000  0.32632983  0.56260213  1
  C  C9  1  0.49999999  0.33375443  0.68783585  1
  C  C10  1  0.50000000  0.33295715  0.81118772  1
  C  C11  1  0.50000001  0.33245816  0.93369206  1
  C  C12  1  0.50000000  0.41833286  0.06091420  1
  C  C13  1  0.50000000  0.41740062  0.18525474  1
  C  C14  1  0.50000000  0.41723878  0.30956461  1
  C  C15  1  0.50000000  0.41966547  0.43416544  1
  C  C16  1  0.50000000  0.41353958  0.55959443  1
  C  C17  1  0.50000000  0.41795606  0.68579834  1
  C  C18  1  0.50000001  0.41705337  0.81114901  1
  C  C19  1  0.50000000  0.41578618  0.93567290  1
  C  C20  1  0.50000000  0.45743724  -0.00079661  1
  C  C21  1  0.50000000  0.45749943  0.12369069  1
  C  C22  1  0.50000000  0.45717545  0.24756099  1
  C  C23  1  0.50000000  0.45777566  0.37124997  1
  C  C24  1  0.50000000  0.45709043  0.49709005  1
  C  C25  1  0.50000000  0.45712856  0.62122108  1
  C  C26  1  0.50000001  0.45814035  0.74808316  1
  C  C27  1  0.50000001  0.45775212  0.87381834  1
  C  C28  1  0.50000000  0.54256276  -0.00079661  1
  C  C29  1  0.50000000  0.54250057  0.12369069  1
  C  C30  1  0.50000000  0.54282455  0.24756099  1
  C  C31  1  0.50000000  0.54222434  0.37124997  1
  C  C32  1  0.50000000  0.54290957  0.49709005  1
  C  C33  1  0.50000000  0.54287144  0.62122108  1
  C  C34  1  0.50000001  0.54185965  0.74808316  1
  C  C35  1  0.50000001  0.54224788  0.87381834  1
  C  C36  1  0.50000000  0.58166714  0.06091420  1
  C  C37  1  0.50000000  0.58259938  0.18525474  1
  C  C38  1  0.50000000  0.58276122  0.30956461  1
  C  C39  1  0.50000000  0.58033453  0.43416544  1
  C  C40  1  0.50000000  0.58646042  0.55959443  1
  C  C41  1  0.50000000  0.58204394  0.68579834  1
  C  C42  1  0.50000001  0.58294663  0.81114901  1
  C  C43  1  0.50000000  0.58421382  0.93567290  1
  C  C44  1  0.50000000  0.67367017  0.56260213  1
  C  C45  1  0.49999999  0.66624557  0.68783585  1
  C  C46  1  0.50000000  0.66704285  0.81118772  1
  C  C47  1  0.50000001  0.66754184  0.93369206  1
  H  H48  1  0.49999999  0.79216042  0.53062342  1
  H  H49  1  0.50000000  0.77191445  0.63119587  1
  H  H50  1  0.49999997  0.77070582  0.74970762  1
  H  H51  1  0.50000001  0.77165094  0.87362531  1
  H  H52  1  0.49999999  0.20783957  0.53062342  1
  H  H53  1  0.50000000  0.22808555  0.63119587  1
  H  H54  1  0.49999997  0.22929418  0.74970762  1
  H  H55  1  0.50000001  0.22834906  0.87362531  1
  H  H56  1  0.50000004  0.72624870  0.45838648  1
  H  H57  1  0.50000004  0.27375130  0.45838647  1
  H  H58  1  0.50000001  0.29928078  0.98073664  1
  H  H59  1  0.49999999  0.35438948  0.06271218  1
  H  H60  1  0.50000000  0.35319648  0.18519862  1
  H  H61  1  0.50000000  0.35301124  0.30928721  1
  H  H62  1  0.49999998  0.35675142  0.43178408  1
  H  H63  1  0.49999999  0.64561052  0.06271218  1
  H  H64  1  0.50000000  0.64680352  0.18519862  1
  H  H65  1  0.50000000  0.64698876  0.30928721  1
  H  H66  1  0.49999998  0.64324858  0.43178408  1
  H  H67  1  0.50000001  0.70071922  0.98073664  1
