# generated using pymatgen
data_H11C68
_symmetry_space_group_name_H-M   'P 1'
_cell_length_a   10.00000000
_cell_length_b   29.89204000
_cell_length_c   19.76833100
_cell_angle_alpha   90.00000000
_cell_angle_beta   90.00000000
_cell_angle_gamma   90.00000000
_symmetry_Int_Tables_number   1
_chemical_formula_structural   H11C68
_chemical_formula_sum   'H22 C136'
_cell_volume   5909.15741012
_cell_formula_units_Z   2
loop_
 _symmetry_equiv_pos_site_id
 _symmetry_equiv_pos_as_xyz
  1  'x, y, z'
loop_
 _atom_site_type_symbol
 _atom_site_label
 _atom_site_symmetry_multiplicity
 _atom_site_fract_x
 _atom_site_fract_y
 _atom_site_fract_z
 _atom_site_occupancy
  C  C0  1  0.49999879  0.84642058  0.52332657  1
  C  C1  1  0.49999987  0.83923706  0.64502043  1
  C  C2  1  0.50000010  0.83550395  0.76752382  1
  C  C3  1  0.50000041  0.83356617  0.89163244  1
  C  C4  1  0.49999998  0.16519630  0.00515239  1
  C  C5  1  0.50000000  0.16505127  0.13036447  1
  C  C6  1  0.50000000  0.16513861  0.25565343  1
  C  C7  1  0.49999998  0.16537520  0.38080383  1
  C  C8  1  0.49999998  0.16563966  0.50574067  1
  C  C9  1  0.50000000  0.16575913  0.63053181  1
  C  C10  1  0.50000000  0.16568330  0.75527712  1
  C  C11  1  0.49999999  0.16546022  0.88010091  1
  C  C12  1  0.49999999  0.18788143  0.06778891  1
  C  C13  1  0.50000000  0.18780627  0.19298504  1
  C  C14  1  0.49999999  0.18801268  0.31816609  1
  C  C15  1  0.49999999  0.18833275  0.44321238  1
  C  C16  1  0.49999999  0.18854961  0.56811838  1
  C  C17  1  0.50000000  0.18857892  0.69293434  1
  C  C18  1  0.50000000  0.18842698  0.81775435  1
  C  C19  1  0.49999999  0.18812609  0.94268903  1
  C  C20  1  0.49999999  0.23628123  0.06780472  1
  C  C21  1  0.49999999  0.23619605  0.19298128  1
  C  C22  1  0.50000000  0.23638232  0.31814006  1
  C  C23  1  0.50000000  0.23669632  0.44323072  1
  C  C24  1  0.49999999  0.23692440  0.56815791  1
  C  C25  1  0.49999999  0.23697922  0.69295836  1
  C  C26  1  0.50000000  0.23683085  0.81777951  1
  C  C27  1  0.49999999  0.23652200  0.94272224  1
  C  C28  1  0.49999999  0.26006450  0.00530246  1
  C  C29  1  0.50000000  0.25985559  0.13040405  1
  C  C30  1  0.50000000  0.25990996  0.25552651  1
  C  C31  1  0.50000000  0.26017324  0.38064620  1
  C  C32  1  0.50000000  0.26050293  0.50568325  1
  C  C33  1  0.49999999  0.26070959  0.63056345  1
  C  C34  1  0.49999999  0.26067161  0.75539555  1
  C  C35  1  0.50000000  0.26039326  0.88029577  1
  C  C36  1  0.50000000  0.30801260  0.00523571  1
  C  C37  1  0.50000000  0.30775100  0.13037016  1
  C  C38  1  0.50000000  0.30780884  0.25556875  1
  C  C39  1  0.49999999  0.30808684  0.38075321  1
  C  C40  1  0.50000000  0.30845496  0.50576538  1
  C  C41  1  0.50000000  0.30869775  0.63057827  1
  C  C42  1  0.50000000  0.30867550  0.75535250  1
  C  C43  1  0.50000000  0.30839440  0.88020174  1
  C  C44  1  0.50000000  0.33157779  0.06781892  1
  C  C45  1  0.50000000  0.33140762  0.19292644  1
  C  C46  1  0.50000000  0.33160688  0.31814072  1
  C  C47  1  0.49999999  0.33202364  0.44323652  1
  C  C48  1  0.50000000  0.33243881  0.56814857  1
  C  C49  1  0.50000000  0.33258729  0.69295324  1
  C  C50  1  0.49999999  0.33243944  0.81779390  1
  C  C51  1  0.50000000  0.33199774  0.94275504  1
  C  C52  1  0.50000000  0.37938291  0.06772115  1
  C  C53  1  0.49999999  0.37912591  0.19284304  1
  C  C54  1  0.50000000  0.37936644  0.31820061  1
  C  C55  1  0.50000001  0.37988060  0.44337434  1
  C  C56  1  0.50000001  0.38037007  0.56821998  1
  C  C57  1  0.50000000  0.38056024  0.69288493  1
  C  C58  1  0.50000000  0.38040224  0.81766611  1
  C  C59  1  0.50000000  0.37985193  0.94265168  1
  C  C60  1  0.50000001  0.40336323  0.00526601  1
  C  C61  1  0.49999999  0.40290988  0.13031755  1
  C  C62  1  0.50000000  0.40273233  0.25540619  1
  C  C63  1  0.50000002  0.40331903  0.38072813  1
  C  C64  1  0.50000003  0.40405349  0.50578931  1
  C  C65  1  0.50000000  0.40449793  0.63052751  1
  C  C66  1  0.49999999  0.40450657  0.75522164  1
  C  C67  1  0.50000001  0.40400269  0.88022349  1
  C  C68  1  0.50000001  0.45115033  0.00525782  1
  C  C69  1  0.50000000  0.45061699  0.13029891  1
  C  C70  1  0.50000007  0.45034088  0.25529045  1
  C  C71  1  0.50000012  0.45104615  0.38074066  1
  C  C72  1  0.50000013  0.45198030  0.50588397  1
  C  C73  1  0.50000004  0.45255260  0.63041288  1
  C  C74  1  0.50000000  0.45250406  0.75504070  1
  C  C75  1  0.50000002  0.45190614  0.88008997  1
  C  C76  1  0.50000000  0.47451619  0.06789739  1
  C  C77  1  0.50000006  0.47408535  0.19289089  1
  C  C78  1  0.50000021  0.47401536  0.31768550  1
  C  C79  1  0.50000019  0.47522898  0.44326116  1
  C  C80  1  0.50000020  0.47642461  0.56798274  1
  C  C81  1  0.50000001  0.47670076  0.69261434  1
  C  C82  1  0.50000000  0.47608280  0.81766284  1
  C  C83  1  0.50000001  0.47533097  0.94284813  1
  C  C84  1  0.50000002  0.52230669  0.06816429  1
  C  C85  1  0.50000010  0.52180878  0.19296772  1
  C  C86  1  0.50000036  0.52153480  0.31732449  1
  C  C87  1  0.50000032  0.52307889  0.44311690  1
  C  C88  1  0.50000036  0.52460415  0.56777264  1
  C  C89  1  0.50000000  0.52496382  0.69229949  1
  C  C90  1  0.49999996  0.52405614  0.81766548  1
  C  C91  1  0.49999998  0.52310965  0.94309809  1
  C  C92  1  0.50000000  0.54638123  0.00586565  1
  C  C93  1  0.50000007  0.54555678  0.13068884  1
  C  C94  1  0.50000017  0.54539302  0.25517000  1
  C  C95  1  0.50000036  0.54497885  0.37958022  1
  C  C96  1  0.50000044  0.54804009  0.50535145  1
  C  C97  1  0.50000009  0.54935113  0.62998432  1
  C  C98  1  0.49999996  0.54843660  0.75522161  1
  C  C99  1  0.49999993  0.54722391  0.88046589  1
  C  C100  1  0.49999995  0.59434159  0.00705875  1
  C  C101  1  0.50000013  0.59360386  0.13118881  1
  C  C102  1  0.50000000  0.59364211  0.25501960  1
  C  C103  1  0.49999911  0.59246038  0.37853446  1
  C  C104  1  0.49999952  0.59662639  0.50427622  1
  C  C105  1  0.50000019  0.59803111  0.62942951  1
  C  C106  1  0.49999992  0.59641535  0.75529215  1
  C  C107  1  0.49999974  0.59501012  0.88075190  1
  C  C108  1  0.50000005  0.61654114  0.06887046  1
  C  C109  1  0.50000013  0.61660751  0.19294316  1
  C  C110  1  0.49999921  0.61611993  0.31729356  1
  C  C111  1  0.49999704  0.61566140  0.43989336  1
  C  C112  1  0.50000035  0.62267771  0.56711611  1
  C  C113  1  0.50000007  0.62124520  0.69341289  1
  C  C114  1  0.49999966  0.61960596  0.81881756  1
  C  C115  1  0.49999970  0.61847342  0.94335141  1
  C  C116  1  0.50000131  0.67195810  0.56992923  1
  C  C117  1  0.49999979  0.66940974  0.69563685  1
  C  C118  1  0.49999946  0.66738128  0.82042578  1
  C  C119  1  0.49999944  0.66508172  0.94296530  1
  C  C120  1  0.50000410  0.70138644  0.51342996  1
  C  C121  1  0.50000003  0.69476284  0.63415806  1
  C  C122  1  0.49999961  0.69221530  0.75905449  1
  C  C123  1  0.49999921  0.69019501  0.88403279  1
  C  C124  1  0.50000215  0.74743210  0.51686619  1
  C  C125  1  0.49999974  0.74325132  0.63773263  1
  C  C126  1  0.49999971  0.74035277  0.76214649  1
  C  C127  1  0.49999932  0.73882501  0.88737398  1
  C  C128  1  0.49999972  0.77015847  0.57814470  1
  C  C129  1  0.49999975  0.76532472  0.70183157  1
  C  C130  1  0.49999968  0.76319418  0.82594855  1
  C  C131  1  0.49999926  0.76231336  0.94913606  1
  C  C132  1  0.49999937  0.81931214  0.58018070  1
  C  C133  1  0.49999994  0.81385185  0.70453613  1
  C  C134  1  0.50000003  0.81129948  0.82826167  1
  C  C135  1  0.50000011  0.80916474  0.95122564  1
  H  H136  1  0.49999909  0.88285571  0.52985482  1
  H  H137  1  0.50000008  0.87583137  0.64895924  1
  H  H138  1  0.50000003  0.87219279  0.76902011  1
  H  H139  1  0.50000103  0.87022728  0.89224862  1
  H  H140  1  0.49999999  0.12848561  0.00493059  1
  H  H141  1  0.50000002  0.12834603  0.13038854  1
  H  H142  1  0.50000000  0.12844927  0.25585614  1
  H  H143  1  0.49999996  0.12867686  0.38101831  1
  H  H144  1  0.49999997  0.12894887  0.50585474  1
  H  H145  1  0.49999999  0.12907385  0.63045179  1
  H  H146  1  0.50000002  0.12898766  0.75499954  1
  H  H147  1  0.50000000  0.12875968  0.87978740  1
  H  H148  1  0.49999791  0.83382075  0.47143237  1
  H  H149  1  0.50000001  0.65307252  0.07117121  1
  H  H150  1  0.50000008  0.65328139  0.19302875  1
  H  H151  1  0.49999897  0.65280537  0.31839554  1
  H  H152  1  0.49999166  0.65094841  0.43158698  1
  H  H153  1  0.49999961  0.68264410  0.99109082  1
  H  H154  1  0.50001001  0.69039805  0.46186813  1
  H  H155  1  0.50000371  0.76582376  0.46904984  1
  H  H156  1  0.49999860  0.74421343  0.99717056  1
  H  H157  1  0.50000062  0.82632186  1.00020610  1
