# generated using pymatgen
data_H9C28
_symmetry_space_group_name_H-M   'P 1'
_cell_length_a   10.00000000
_cell_length_b   17.10430000
_cell_length_c   19.76406884
_cell_angle_alpha   90.00000000
_cell_angle_beta   90.00000000
_cell_angle_gamma   90.00000000
_symmetry_Int_Tables_number   1
_chemical_formula_structural   H9C28
_chemical_formula_sum   'H18 C56'
_cell_volume   3380.50562614
_cell_formula_units_Z   2
loop_
 _symmetry_equiv_pos_site_id
 _symmetry_equiv_pos_as_xyz
  1  'x, y, z'
loop_
 _atom_site_type_symbol
 _atom_site_label
 _atom_site_symmetry_multiplicity
 _atom_site_fract_x
 _atom_site_fract_y
 _atom_site_fract_z
 _atom_site_occupancy
  C  C0  1  0.50000000  0.73070472  0.51906544  1
  C  C1  1  0.50000000  0.70844223  0.63518212  1
  C  C2  1  0.50000000  0.70786186  0.75796486  1
  C  C3  1  0.50000000  0.70826532  0.88238983  1
  C  C4  1  0.50000000  0.29150369  0.00576392  1
  C  C5  1  0.50000000  0.28966980  0.13048315  1
  C  C6  1  0.50000000  0.28770172  0.25596572  1
  C  C7  1  0.50000000  0.28846165  0.38201433  1
  C  C8  1  0.50000000  0.29053906  0.50753365  1
  C  C9  1  0.50000000  0.29260266  0.63207935  1
  C  C10  1  0.50000000  0.29340793  0.75643766  1
  C  C11  1  0.50000000  0.29266803  0.88123659  1
  C  C12  1  0.50000000  0.33056770  0.06848686  1
  C  C13  1  0.50000000  0.32818215  0.19363731  1
  C  C14  1  0.50000000  0.32718775  0.31880157  1
  C  C15  1  0.50000000  0.32911964  0.44444285  1
  C  C16  1  0.50000000  0.33176272  0.56937914  1
  C  C17  1  0.50000000  0.33329549  0.69399647  1
  C  C18  1  0.50000000  0.33279856  0.81903238  1
  C  C19  1  0.50000000  0.33215950  0.94379932  1
  C  C20  1  0.50000000  0.41529706  0.06896324  1
  C  C21  1  0.50000000  0.41290714  0.19393615  1
  C  C22  1  0.50000000  0.41184051  0.31864252  1
  C  C23  1  0.50000000  0.41398076  0.44417561  1
  C  C24  1  0.50000000  0.41670353  0.56891279  1
  C  C25  1  0.50000000  0.41819847  0.69357348  1
  C  C26  1  0.50000000  0.41753829  0.81916200  1
  C  C27  1  0.50000000  0.41692677  0.94416631  1
  C  C28  1  0.50000000  0.45760629  0.00685909  1
  C  C29  1  0.50000000  0.45498268  0.13185895  1
  C  C30  1  0.50000000  0.45349742  0.25645465  1
  C  C31  1  0.50000000  0.45306857  0.38099577  1
  C  C32  1  0.50000000  0.45706309  0.50636333  1
  C  C33  1  0.50000000  0.45953707  0.63082540  1
  C  C34  1  0.50000000  0.45860043  0.75647290  1
  C  C35  1  0.50000000  0.45852997  0.88178897  1
  C  C36  1  0.50000000  0.54229590  0.00789746  1
  C  C37  1  0.50000000  0.53954076  0.13247342  1
  C  C38  1  0.50000000  0.53826688  0.25658262  1
  C  C39  1  0.50000000  0.53709355  0.38039008  1
  C  C40  1  0.50000000  0.54207719  0.50544318  1
  C  C41  1  0.50000000  0.54441106  0.62998244  1
  C  C42  1  0.50000000  0.54242311  0.75639425  1
  C  C43  1  0.50000000  0.54280675  0.88213160  1
  C  C44  1  0.50000000  0.58030917  0.07030783  1
  C  C45  1  0.50000000  0.57892421  0.19469048  1
  C  C46  1  0.50000000  0.57773881  0.31884007  1
  C  C47  1  0.50000000  0.57780701  0.44209034  1
  C  C48  1  0.50000000  0.58671866  0.56764572  1
  C  C49  1  0.50000000  0.58351882  0.69429005  1
  C  C50  1  0.50000000  0.58379149  0.81938049  1
  C  C51  1  0.50000000  0.58468631  0.94439463  1
  C  C52  1  0.50000000  0.67365346  0.56969679  1
  C  C53  1  0.50000000  0.66749837  0.69578177  1
  C  C54  1  0.50000000  0.66784633  0.81933312  1
  C  C55  1  0.50000000  0.66807743  0.94242208  1
  H  H56  1  0.50000000  0.79167747  0.53632204  1
  H  H57  1  0.50000000  0.77241334  0.63766489  1
  H  H58  1  0.50000000  0.77197852  0.75758538  1
  H  H59  1  0.50000000  0.77237153  0.88172377  1
  H  H60  1  0.50000000  0.22740282  0.00515740  1
  H  H61  1  0.50000000  0.22556136  0.12940115  1
  H  H62  1  0.50000000  0.22355214  0.25518629  1
  H  H63  1  0.50000000  0.22430373  0.38287186  1
  H  H64  1  0.50000000  0.22640068  0.50894074  1
  H  H65  1  0.50000000  0.22843607  0.63270458  1
  H  H66  1  0.50000000  0.22927386  0.75618274  1
  H  H67  1  0.50000000  0.22856963  0.88118789  1
  H  H68  1  0.50000000  0.72447518  0.46443783  1
  H  H69  1  0.50000000  0.64419947  0.07296928  1
  H  H70  1  0.50000000  0.64306607  0.19564593  1
  H  H71  1  0.50000000  0.64185636  0.31931246  1
  H  H72  1  0.50000000  0.64055498  0.43805522  1
  H  H73  1  0.50000000  0.70136969  0.98962494  1
