# generated using pymatgen
data_H11C60
_symmetry_space_group_name_H-M   'P 1'
_cell_length_a   10.00000000
_cell_length_b   29.89204000
_cell_length_c   19.79619409
_cell_angle_alpha   90.00000000
_cell_angle_beta   90.00000000
_cell_angle_gamma   90.00000000
_symmetry_Int_Tables_number   1
_chemical_formula_structural   H11C60
_chemical_formula_sum   'H22 C120'
_cell_volume   5917.48625447
_cell_formula_units_Z   2
loop_
 _symmetry_equiv_pos_site_id
 _symmetry_equiv_pos_as_xyz
  1  'x, y, z'
loop_
 _atom_site_type_symbol
 _atom_site_label
 _atom_site_symmetry_multiplicity
 _atom_site_fract_x
 _atom_site_fract_y
 _atom_site_fract_z
 _atom_site_occupancy
  C  C0  1  0.50000000  0.18757381  0.52077031  1
  C  C1  1  0.50000000  0.20119712  0.63627558  1
  C  C2  1  0.50000000  0.20215158  0.75835978  1
  C  C3  1  0.50000000  0.20186725  0.88224802  1
  C  C4  1  0.50000000  0.22071214  0.57075233  1
  C  C5  1  0.50000000  0.22514429  0.69631807  1
  C  C6  1  0.50000000  0.22512575  0.81948698  1
  C  C7  1  0.50000000  0.22491409  0.94204867  1
  C  C8  1  0.50000000  0.27411405  0.06910234  1
  C  C9  1  0.50000000  0.27387145  0.19353636  1
  C  C10  1  0.50000000  0.27404456  0.31835814  1
  C  C11  1  0.50000000  0.27439448  0.44235998  1
  C  C12  1  0.50000000  0.27041404  0.56799933  1
  C  C13  1  0.50000000  0.27315842  0.69437565  1
  C  C14  1  0.50000000  0.27320303  0.81908376  1
  C  C15  1  0.50000000  0.27253770  0.94364421  1
  C  C16  1  0.50000000  0.29648277  0.00707700  1
  C  C17  1  0.50000000  0.29689159  0.13152862  1
  C  C18  1  0.50000000  0.29663302  0.25588867  1
  C  C19  1  0.50000000  0.29724890  0.38019819  1
  C  C20  1  0.50000000  0.29543047  0.50558572  1
  C  C21  1  0.50000000  0.29525467  0.63005034  1
  C  C22  1  0.50000000  0.29697258  0.75624382  1
  C  C23  1  0.50000000  0.29674815  0.88153227  1
  C  C24  1  0.50000000  0.34461218  0.00618227  1
  C  C25  1  0.50000000  0.34498046  0.13111585  1
  C  C26  1  0.50000000  0.34492913  0.25594532  1
  C  C27  1  0.50000000  0.34518147  0.38075900  1
  C  C28  1  0.50000000  0.34393056  0.50627776  1
  C  C29  1  0.50000000  0.34369617  0.63061490  1
  C  C30  1  0.50000000  0.34483954  0.75610269  1
  C  C31  1  0.50000000  0.34478122  0.88115966  1
  C  C32  1  0.50000000  0.36840682  0.06859197  1
  C  C33  1  0.50000000  0.36849114  0.19357303  1
  C  C34  1  0.50000000  0.36864139  0.31831968  1
  C  C35  1  0.50000000  0.36812633  0.44372791  1
  C  C36  1  0.50000000  0.36789545  0.56843899  1
  C  C37  1  0.50000000  0.36803836  0.69307697  1
  C  C38  1  0.50000000  0.36863079  0.81862884  1
  C  C39  1  0.50000000  0.36840105  0.94368465  1
  C  C40  1  0.50000000  0.41626248  0.06828664  1
  C  C41  1  0.50000000  0.41620998  0.19336701  1
  C  C42  1  0.50000000  0.41631813  0.31850030  1
  C  C43  1  0.50000000  0.41606478  0.44390364  1
  C  C44  1  0.50000000  0.41606332  0.56858870  1
  C  C45  1  0.50000000  0.41621475  0.69313054  1
  C  C46  1  0.50000000  0.41656813  0.81828433  1
  C  C47  1  0.50000000  0.41628434  0.94334105  1
  C  C48  1  0.50000000  0.44002100  0.00582010  1
  C  C49  1  0.50000000  0.43982269  0.13078783  1
  C  C50  1  0.50000000  0.43973495  0.25582929  1
  C  C51  1  0.50000000  0.43976411  0.38128762  1
  C  C52  1  0.50000000  0.43999675  0.50627874  1
  C  C53  1  0.50000000  0.44021776  0.63082055  1
  C  C54  1  0.50000000  0.44033844  0.75552478  1
  C  C55  1  0.50000000  0.44025172  0.88083524  1
  C  C56  1  0.50000000  0.48782809  0.00574639  1
  C  C57  1  0.50000000  0.48753772  0.13074152  1
  C  C58  1  0.50000000  0.48730087  0.25571512  1
  C  C59  1  0.50000000  0.48753333  0.38122809  1
  C  C60  1  0.50000000  0.48798146  0.50627822  1
  C  C61  1  0.50000000  0.48838720  0.63075704  1
  C  C62  1  0.50000000  0.48843471  0.75541106  1
  C  C63  1  0.50000000  0.48817931  0.88065352  1
  C  C64  1  0.50000000  0.51132400  0.06830791  1
  C  C65  1  0.50000000  0.51098518  0.19334152  1
  C  C66  1  0.50000000  0.51071086  0.31824038  1
  C  C67  1  0.50000000  0.51147491  0.44371005  1
  C  C68  1  0.50000000  0.51231233  0.56838229  1
  C  C69  1  0.50000000  0.51256426  0.69296034  1
  C  C70  1  0.50000000  0.51213591  0.81808168  1
  C  C71  1  0.50000000  0.51181306  0.94327807  1
  C  C72  1  0.50000000  0.55915862  0.06854250  1
  C  C73  1  0.50000000  0.55870577  0.19338347  1
  C  C74  1  0.50000000  0.55826664  0.31776341  1
  C  C75  1  0.50000000  0.55932661  0.44340533  1
  C  C76  1  0.50000000  0.56049420  0.56805161  1
  C  C77  1  0.50000000  0.56086582  0.69258502  1
  C  C78  1  0.50000000  0.56012923  0.81808124  1
  C  C79  1  0.50000000  0.55962996  0.94347865  1
  C  C80  1  0.50000000  0.58313422  0.00617157  1
  C  C81  1  0.50000000  0.58241699  0.13106257  1
  C  C82  1  0.50000000  0.58218281  0.25561429  1
  C  C83  1  0.50000000  0.58154982  0.38004090  1
  C  C84  1  0.50000000  0.58399369  0.50567635  1
  C  C85  1  0.50000000  0.58516481  0.63011557  1
  C  C86  1  0.50000000  0.58433899  0.75556493  1
  C  C87  1  0.50000000  0.58352752  0.88083209  1
  C  C88  1  0.50000000  0.63115939  0.00728211  1
  C  C89  1  0.50000000  0.63048465  0.13151045  1
  C  C90  1  0.50000000  0.63046188  0.25547321  1
  C  C91  1  0.50000000  0.62912255  0.37908159  1
  C  C92  1  0.50000000  0.63253773  0.50468933  1
  C  C93  1  0.50000000  0.63385640  0.62949510  1
  C  C94  1  0.50000000  0.63233469  0.75570643  1
  C  C95  1  0.50000000  0.63140295  0.88123750  1
  C  C96  1  0.50000000  0.65336657  0.06915055  1
  C  C97  1  0.50000000  0.65345267  0.19337036  1
  C  C98  1  0.50000000  0.65283627  0.31782705  1
  C  C99  1  0.50000000  0.65202158  0.44065066  1
  C  C100  1  0.50000000  0.65854110  0.56720247  1
  C  C101  1  0.50000000  0.65674568  0.69365858  1
  C  C102  1  0.50000000  0.65568498  0.81915480  1
  C  C103  1  0.50000000  0.65519742  0.94356915  1
  C  C104  1  0.50000000  0.70810216  0.56947899  1
  C  C105  1  0.50000000  0.70478417  0.69564392  1
  C  C106  1  0.50000000  0.70346383  0.82051528  1
  C  C107  1  0.50000000  0.70205376  0.94280397  1
  C  C108  1  0.50000000  0.73823787  0.51360732  1
  C  C109  1  0.50000000  0.72995928  0.63415657  1
  C  C110  1  0.50000000  0.72746433  0.75876444  1
  C  C111  1  0.50000000  0.72685849  0.88382137  1
  C  C112  1  0.50000000  0.78490987  0.51812008  1
  C  C113  1  0.50000000  0.77839111  0.63849373  1
  C  C114  1  0.50000000  0.77576644  0.76168168  1
  C  C115  1  0.50000000  0.77616411  0.88638988  1
  C  C116  1  0.50000000  0.80556433  0.58012710  1
  C  C117  1  0.50000000  0.79978729  0.70134992  1
  C  C118  1  0.50000000  0.79853105  0.82354314  1
  C  C119  1  0.50000000  0.80100036  0.94538822  1
  H  H120  1  0.50000000  0.15288175  0.53882922  1
  H  H121  1  0.50000000  0.16457969  0.63961105  1
  H  H122  1  0.50000000  0.16547701  0.75817870  1
  H  H123  1  0.50000000  0.16519532  0.88176579  1
  H  H124  1  0.50000000  0.84201355  0.58561914  1
  H  H125  1  0.50000000  0.83644733  0.70272894  1
  H  H126  1  0.50000000  0.83521011  0.82271371  1
  H  H127  1  0.50000000  0.83760478  0.94235762  1
  H  H128  1  0.50000000  0.19036639  0.46613970  1
  H  H129  1  0.50000000  0.20598621  0.98927887  1
  H  H130  1  0.50000000  0.23756696  0.07100508  1
  H  H131  1  0.50000000  0.23717479  0.19330381  1
  H  H132  1  0.50000000  0.23734821  0.31870385  1
  H  H133  1  0.50000000  0.23841511  0.43924429  1
  H  H134  1  0.50000000  0.68991161  0.07137343  1
  H  H135  1  0.50000000  0.69014790  0.19342494  1
  H  H136  1  0.50000000  0.68953539  0.31878832  1
  H  H137  1  0.50000000  0.68744344  0.43376555  1
  H  H138  1  0.50000000  0.72005548  0.99062678  1
  H  H139  1  0.50000000  0.72801028  0.46160084  1
  H  H140  1  0.50000000  0.80424324  0.47104541  1
  H  H141  1  0.50000000  0.78635946  0.99594925  1
