# generated using pymatgen
data_H3C14
_symmetry_space_group_name_H-M   'P 1'
_cell_length_a   10.00000000
_cell_length_b   29.89204000
_cell_length_c   19.81020439
_cell_angle_alpha   90.00000000
_cell_angle_beta   90.00000000
_cell_angle_gamma   90.00000000
_symmetry_Int_Tables_number   1
_chemical_formula_structural   H3C14
_chemical_formula_sum   'H24 C112'
_cell_volume   5921.67422104
_cell_formula_units_Z   8
loop_
 _symmetry_equiv_pos_site_id
 _symmetry_equiv_pos_as_xyz
  1  'x, y, z'
loop_
 _atom_site_type_symbol
 _atom_site_label
 _atom_site_symmetry_multiplicity
 _atom_site_fract_x
 _atom_site_fract_y
 _atom_site_fract_z
 _atom_site_occupancy
  C  C0  1  0.50000000  0.18756595  0.52367817  1
  C  C1  1  0.50000000  0.20110304  0.63930500  1
  C  C2  1  0.50000000  0.20197394  0.76137488  1
  C  C3  1  0.50000000  0.20167600  0.88508042  1
  C  C4  1  0.50000000  0.22058078  0.57386041  1
  C  C5  1  0.50000000  0.22499553  0.69936861  1
  C  C6  1  0.50000000  0.22498066  0.82242410  1
  C  C7  1  0.50000000  0.22472044  0.94481498  1
  C  C8  1  0.50000000  0.27369215  0.07195080  1
  C  C9  1  0.50000000  0.27314213  0.19651915  1
  C  C10  1  0.50000000  0.27327581  0.32163999  1
  C  C11  1  0.50000000  0.27404960  0.44570374  1
  C  C12  1  0.50000000  0.27026492  0.57129343  1
  C  C13  1  0.50000000  0.27303469  0.69756728  1
  C  C14  1  0.50000000  0.27307420  0.82208687  1
  C  C15  1  0.50000000  0.27233299  0.94651957  1
  C  C16  1  0.50000000  0.29619338  0.00997919  1
  C  C17  1  0.50000000  0.29626441  0.13453944  1
  C  C18  1  0.50000000  0.29574209  0.25906157  1
  C  C19  1  0.50000000  0.29666111  0.38339876  1
  C  C20  1  0.50000000  0.29518988  0.50884237  1
  C  C21  1  0.50000000  0.29514743  0.63335448  1
  C  C22  1  0.50000000  0.29689422  0.75936878  1
  C  C23  1  0.50000000  0.29661923  0.88452484  1
  C  C24  1  0.50000000  0.34439369  0.00903469  1
  C  C25  1  0.50000000  0.34437176  0.13413331  1
  C  C26  1  0.50000000  0.34404463  0.25912547  1
  C  C27  1  0.50000000  0.34456987  0.38395117  1
  C  C28  1  0.50000000  0.34363116  0.50953636  1
  C  C29  1  0.50000000  0.34362267  0.63401235  1
  C  C30  1  0.50000000  0.34482150  0.75940813  1
  C  C31  1  0.50000000  0.34472355  0.88423722  1
  C  C32  1  0.50000000  0.36793415  0.07158794  1
  C  C33  1  0.50000000  0.36761464  0.19680903  1
  C  C34  1  0.50000000  0.36783743  0.32142890  1
  C  C35  1  0.50000000  0.36758140  0.44687459  1
  C  C36  1  0.50000000  0.36768065  0.57173849  1
  C  C37  1  0.50000000  0.36804186  0.69651183  1
  C  C38  1  0.50000000  0.36867698  0.82188950  1
  C  C39  1  0.50000000  0.36842066  0.94663110  1
  C  C40  1  0.50000000  0.41581375  0.07138641  1
  C  C41  1  0.50000000  0.41530611  0.19680060  1
  C  C42  1  0.50000000  0.41550989  0.32158921  1
  C  C43  1  0.50000000  0.41547200  0.44691875  1
  C  C44  1  0.50000000  0.41579519  0.57193189  1
  C  C45  1  0.50000000  0.41628814  0.69682788  1
  C  C46  1  0.50000000  0.41682775  0.82177565  1
  C  C47  1  0.50000000  0.41641274  0.94636715  1
  C  C48  1  0.50000000  0.43983263  0.00889350  1
  C  C49  1  0.50000000  0.43883071  0.13433594  1
  C  C50  1  0.50000000  0.43895331  0.25907950  1
  C  C51  1  0.50000000  0.43895359  0.38425846  1
  C  C52  1  0.50000000  0.43942187  0.50932110  1
  C  C53  1  0.50000000  0.43991947  0.63428424  1
  C  C54  1  0.50000000  0.44067629  0.75929648  1
  C  C55  1  0.50000000  0.44075038  0.88416931  1
  C  C56  1  0.50000000  0.48774509  0.00896037  1
  C  C57  1  0.50000000  0.48641325  0.13465121  1
  C  C58  1  0.50000000  0.48665420  0.25903990  1
  C  C59  1  0.50000000  0.48676239  0.38394479  1
  C  C60  1  0.50000000  0.48726281  0.50899863  1
  C  C61  1  0.50000000  0.48799790  0.63429387  1
  C  C62  1  0.50000000  0.48904883  0.75959108  1
  C  C63  1  0.50000000  0.48901611  0.88422973  1
  C  C64  1  0.50000000  0.50976422  0.07237115  1
  C  C65  1  0.50000000  0.51022498  0.19685762  1
  C  C66  1  0.50000000  0.51010967  0.32145709  1
  C  C67  1  0.50000000  0.51063017  0.44625090  1
  C  C68  1  0.50000000  0.51125661  0.57158370  1
  C  C69  1  0.50000000  0.51248240  0.69663829  1
  C  C70  1  0.50000000  0.51353814  0.82188057  1
  C  C71  1  0.50000000  0.51258856  0.94664861  1
  C  C72  1  0.50000000  0.55729480  0.07345309  1
  C  C73  1  0.50000000  0.55848625  0.19707172  1
  C  C74  1  0.50000000  0.55816199  0.32094350  1
  C  C75  1  0.50000000  0.55859476  0.44496952  1
  C  C76  1  0.50000000  0.55908958  0.57112382  1
  C  C77  1  0.50000000  0.56053392  0.69638097  1
  C  C78  1  0.50000000  0.56224822  0.82227971  1
  C  C79  1  0.50000000  0.56124747  0.94761808  1
  C  C80  1  0.50000000  0.58037462  0.01194158  1
  C  C81  1  0.50000000  0.58092771  0.13475822  1
  C  C82  1  0.50000000  0.58128757  0.25926433  1
  C  C83  1  0.50000000  0.58091293  0.38332798  1
  C  C84  1  0.50000000  0.58256294  0.50862139  1
  C  C85  1  0.50000000  0.58371794  0.63291483  1
  C  C86  1  0.50000000  0.58537448  0.75816542  1
  C  C87  1  0.50000000  0.58701728  0.88441183  1
  C  C88  1  0.50000000  0.62915969  0.50890199  1
  C  C89  1  0.50000000  0.63151669  0.63114828  1
  C  C90  1  0.50000000  0.63356573  0.75565639  1
  C  C91  1  0.50000000  0.63629685  0.88112885  1
  C  C92  1  0.50000000  0.65431656  0.56760361  1
  C  C93  1  0.50000000  0.65634967  0.69233859  1
  C  C94  1  0.50000000  0.65897945  0.81692419  1
  C  C95  1  0.50000000  0.66579760  0.93735695  1
  C  C96  1  0.50000000  0.70295550  0.56394405  1
  C  C97  1  0.50000000  0.70451535  0.68897105  1
  C  C98  1  0.50000000  0.70746203  0.81316292  1
  C  C99  1  0.50000000  0.71185509  0.93379319  1
  C  C100  1  0.50000000  0.72648044  0.50230711  1
  C  C101  1  0.50000000  0.72732920  0.62520622  1
  C  C102  1  0.50000000  0.72948350  0.74914197  1
  C  C103  1  0.50000000  0.73441978  0.87251609  1
  C  C104  1  0.50000000  0.77335426  0.50019115  1
  C  C105  1  0.50000000  0.77543615  0.62283709  1
  C  C106  1  0.50000000  0.77801392  0.74637362  1
  C  C107  1  0.50000000  0.78358414  0.87036298  1
  C  C108  1  0.50000000  0.79778118  0.55962243  1
  C  C109  1  0.50000000  0.79958751  0.68346591  1
  C  C110  1  0.50000000  0.80349992  0.80567340  1
  C  C111  1  0.50000000  0.81055524  0.92722522  1
  H  H112  1  0.50000000  0.15275673  0.54119633  1
  H  H113  1  0.50000000  0.16451226  0.64253834  1
  H  H114  1  0.50000000  0.16529012  0.76139158  1
  H  H115  1  0.50000000  0.16501458  0.88473766  1
  H  H116  1  0.50000000  0.83445928  0.55894646  1
  H  H117  1  0.50000000  0.83624398  0.68187578  1
  H  H118  1  0.50000000  0.84009513  0.80167634  1
  H  H119  1  0.50000000  0.84699918  0.92109074  1
  H  H120  1  0.50000000  0.19059338  0.46912136  1
  H  H121  1  0.50000000  0.20578504  0.99196682  1
  H  H122  1  0.50000000  0.23712677  0.07351662  1
  H  H123  1  0.50000000  0.23644187  0.19604301  1
  H  H124  1  0.50000000  0.23656415  0.32214992  1
  H  H125  1  0.50000000  0.23810118  0.44263131  1
  H  H126  1  0.50000000  0.61569339  0.02014827  1
  H  H127  1  0.50000000  0.61762943  0.13395668  1
  H  H128  1  0.50000000  0.61798195  0.25928572  1
  H  H129  1  0.50000000  0.61745200  0.38107364  1
  H  H130  1  0.50000000  0.64669354  0.46085075  1
  H  H131  1  0.50000000  0.65474137  0.98875969  1
  H  H132  1  0.50000000  0.73040003  0.98139348  1
  H  H133  1  0.50000000  0.70843162  0.45433157  1
  H  H134  1  0.50000000  0.79043951  0.45124447  1
  H  H135  1  0.50000000  0.79764109  0.97882458  1
