# generated using pymatgen
data_H11C52
_symmetry_space_group_name_H-M   'P 1'
_cell_length_a   10.00000000
_cell_length_b   25.62946000
_cell_length_c   19.77570104
_cell_angle_alpha   90.00000000
_cell_angle_beta   90.00000000
_cell_angle_gamma   90.00000000
_symmetry_Int_Tables_number   1
_chemical_formula_structural   H11C52
_chemical_formula_sum   'H22 C104'
_cell_volume   5068.40538721
_cell_formula_units_Z   2
loop_
 _symmetry_equiv_pos_site_id
 _symmetry_equiv_pos_as_xyz
  1  'x, y, z'
loop_
 _atom_site_type_symbol
 _atom_site_label
 _atom_site_symmetry_multiplicity
 _atom_site_fract_x
 _atom_site_fract_y
 _atom_site_fract_z
 _atom_site_occupancy
  C  C0  1  0.50000000  0.82015310  0.52311800  1
  C  C1  1  0.50000000  0.81189931  0.64481011  1
  C  C2  1  0.50000000  0.80759477  0.76726208  1
  C  C3  1  0.50000000  0.80541517  0.89126924  1
  C  C4  1  0.50000000  0.19260846  0.00380744  1
  C  C5  1  0.50000000  0.19173363  0.12939380  1
  C  C6  1  0.50000000  0.19171776  0.25519966  1
  C  C7  1  0.50000000  0.19244750  0.38080782  1
  C  C8  1  0.50000000  0.19343751  0.50576689  1
  C  C9  1  0.50000000  0.19415805  0.63019197  1
  C  C10  1  0.50000000  0.19427606  0.75439858  1
  C  C11  1  0.50000000  0.19366571  0.87880364  1
  C  C12  1  0.50000000  0.21859884  0.06677643  1
  C  C13  1  0.50000000  0.21801131  0.19227876  1
  C  C14  1  0.50000000  0.21848481  0.31786358  1
  C  C15  1  0.50000000  0.21953537  0.44306701  1
  C  C16  1  0.50000000  0.22057859  0.56781794  1
  C  C17  1  0.50000000  0.22104973  0.69225157  1
  C  C18  1  0.50000000  0.22076700  0.81674235  1
  C  C19  1  0.50000000  0.21973154  0.94155421  1
  C  C20  1  0.50000000  0.27502238  0.06696326  1
  C  C21  1  0.50000000  0.27444256  0.19225096  1
  C  C22  1  0.50000000  0.27489577  0.31773161  1
  C  C23  1  0.50000000  0.27597754  0.44294335  1
  C  C24  1  0.50000000  0.27702093  0.56768273  1
  C  C25  1  0.50000000  0.27754083  0.69219885  1
  C  C26  1  0.50000000  0.27720835  0.81687911  1
  C  C27  1  0.50000000  0.27613536  0.94180725  1
  C  C28  1  0.50000000  0.30306086  0.00463757  1
  C  C29  1  0.50000000  0.30216411  0.12971919  1
  C  C30  1  0.50000000  0.30193909  0.25486289  1
  C  C31  1  0.50000000  0.30289241  0.38017469  1
  C  C32  1  0.50000000  0.30420198  0.50517998  1
  C  C33  1  0.50000000  0.30512856  0.62982654  1
  C  C34  1  0.50000000  0.30520639  0.75455244  1
  C  C35  1  0.50000000  0.30432042  0.87954316  1
  C  C36  1  0.50000000  0.35901766  0.00470500  1
  C  C37  1  0.50000000  0.35804396  0.12974111  1
  C  C38  1  0.50000000  0.35770163  0.25475765  1
  C  C39  1  0.50000000  0.35879438  0.38021606  1
  C  C40  1  0.50000000  0.36024534  0.50526397  1
  C  C41  1  0.50000000  0.36131219  0.62979266  1
  C  C42  1  0.50000000  0.36131828  0.75443558  1
  C  C43  1  0.50000000  0.36031230  0.87954342  1
  C  C44  1  0.50000000  0.38606219  0.06742212  1
  C  C45  1  0.50000000  0.38534107  0.19236037  1
  C  C46  1  0.50000000  0.38539214  0.31713336  1
  C  C47  1  0.50000000  0.38715522  0.44261574  1
  C  C48  1  0.50000000  0.38893065  0.56729798  1
  C  C49  1  0.50000000  0.38939947  0.69200821  1
  C  C50  1  0.50000000  0.38854886  0.81718998  1
  C  C51  1  0.50000000  0.38736428  0.94242605  1
  C  C52  1  0.50000000  0.44189827  0.06774219  1
  C  C53  1  0.50000000  0.44109420  0.19247480  1
  C  C54  1  0.50000000  0.44092443  0.31679101  1
  C  C55  1  0.50000000  0.44306807  0.44250136  1
  C  C56  1  0.50000000  0.44520645  0.56714892  1
  C  C57  1  0.50000000  0.44565822  0.69181470  1
  C  C58  1  0.50000000  0.44452688  0.81727386  1
  C  C59  1  0.50000000  0.44317035  0.94275299  1
  C  C60  1  0.50000000  0.47016592  0.00557937  1
  C  C61  1  0.50000000  0.46886133  0.13029630  1
  C  C62  1  0.50000000  0.46862194  0.25463351  1
  C  C63  1  0.50000000  0.46844766  0.37893768  1
  C  C64  1  0.50000000  0.47238445  0.50464529  1
  C  C65  1  0.50000000  0.47395519  0.62943342  1
  C  C66  1  0.50000000  0.47295891  0.75483076  1
  C  C67  1  0.50000000  0.47138106  0.88017398  1
  C  C68  1  0.50000000  0.52617099  0.00687333  1
  C  C69  1  0.50000000  0.52493569  0.13087427  1
  C  C70  1  0.50000000  0.52492139  0.25451599  1
  C  C71  1  0.50000000  0.52387546  0.37794020  1
  C  C72  1  0.50000000  0.52914023  0.50362385  1
  C  C73  1  0.50000000  0.53069881  0.62897090  1
  C  C74  1  0.50000000  0.52888982  0.75507271  1
  C  C75  1  0.50000000  0.52714858  0.88061533  1
  C  C76  1  0.50000000  0.55188811  0.06870515  1
  C  C77  1  0.50000000  0.55173120  0.19254846  1
  C  C78  1  0.50000000  0.55130461  0.31663065  1
  C  C79  1  0.50000000  0.55119800  0.43918053  1
  C  C80  1  0.50000000  0.55940770  0.56672703  1
  C  C81  1  0.50000000  0.55769891  0.69313370  1
  C  C82  1  0.50000000  0.55585286  0.81867397  1
  C  C83  1  0.50000000  0.55444444  0.94324550  1
  C  C84  1  0.50000000  0.61684371  0.56981803  1
  C  C85  1  0.50000000  0.61387183  0.69550924  1
  C  C86  1  0.50000000  0.61156854  0.82030714  1
  C  C87  1  0.50000000  0.60884236  0.94287199  1
  C  C88  1  0.50000000  0.65106215  0.51335945  1
  C  C89  1  0.50000000  0.64341676  0.63401249  1
  C  C90  1  0.50000000  0.64047606  0.75889658  1
  C  C91  1  0.50000000  0.63814901  0.88394269  1
  C  C92  1  0.50000000  0.70479844  0.51665115  1
  C  C93  1  0.50000000  0.69996872  0.63752217  1
  C  C94  1  0.50000000  0.69663039  0.76195733  1
  C  C95  1  0.50000000  0.69488929  0.88721228  1
  C  C96  1  0.50000000  0.73128028  0.57792179  1
  C  C97  1  0.50000000  0.72572816  0.70162755  1
  C  C98  1  0.50000000  0.72326180  0.82575568  1
  C  C99  1  0.50000000  0.72236032  0.94888907  1
  C  C100  1  0.50000000  0.78862437  0.58001187  1
  C  C101  1  0.50000000  0.78230996  0.70429972  1
  C  C102  1  0.50000000  0.77936943  0.82799596  1
  C  C103  1  0.50000000  0.77701804  0.95087736  1
  H  H104  1  0.50000000  0.86264715  0.52948504  1
  H  H105  1  0.50000000  0.85457662  0.64874539  1
  H  H106  1  0.50000000  0.85038855  0.76870550  1
  H  H107  1  0.50000000  0.84817003  0.89170017  1
  H  H108  1  0.50000000  0.14981368  0.00301468  1
  H  H109  1  0.50000000  0.14892216  0.12900984  1
  H  H110  1  0.50000000  0.14889833  0.25555637  1
  H  H111  1  0.50000000  0.14965384  0.38160581  1
  H  H112  1  0.50000000  0.15066087  0.50654015  1
  H  H113  1  0.50000000  0.15137473  0.63052864  1
  H  H114  1  0.50000000  0.15149017  0.75415114  1
  H  H115  1  0.50000000  0.15088571  0.87804519  1
  H  H116  1  0.50000000  0.80529313  0.47133439  1
  H  H117  1  0.50000000  0.59449752  0.07129318  1
  H  H118  1  0.50000000  0.59449830  0.19275979  1
  H  H119  1  0.50000000  0.59409064  0.31738245  1
  H  H120  1  0.50000000  0.59232928  0.43028473  1
  H  H121  1  0.50000000  0.62936804  0.99098536  1
  H  H122  1  0.50000000  0.63794685  0.46195493  1
  H  H123  1  0.50000000  0.72611905  0.46872841  1
  H  H124  1  0.50000000  0.70126036  0.99691399  1
  H  H125  1  0.50000000  0.79705812  0.99981211  1
