# generated using pymatgen
data_HC4
_symmetry_space_group_name_H-M   'P 1'
_cell_length_a   10.00000000
_cell_length_b   21.36688000
_cell_length_c   19.79840083
_cell_angle_alpha   90.00000000
_cell_angle_beta   90.00000000
_cell_angle_gamma   90.00000000
_symmetry_Int_Tables_number   1
_chemical_formula_structural   HC4
_chemical_formula_sum   'H20 C80'
_cell_volume   4230.30054677
_cell_formula_units_Z   20
loop_
 _symmetry_equiv_pos_site_id
 _symmetry_equiv_pos_as_xyz
  1  'x, y, z'
loop_
 _atom_site_type_symbol
 _atom_site_label
 _atom_site_symmetry_multiplicity
 _atom_site_fract_x
 _atom_site_fract_y
 _atom_site_fract_z
 _atom_site_occupancy
  C  C0  1  0.50000000  0.78617687  0.52011387  1
  C  C1  1  0.50000000  0.76747796  0.63576447  1
  C  C2  1  0.50000000  0.76628001  0.75793002  1
  C  C3  1  0.50000000  0.76664110  0.88175966  1
  C  C4  1  0.50000000  0.21382313  0.52011391  1
  C  C5  1  0.50000000  0.23252209  0.63576449  1
  C  C6  1  0.50000000  0.23372003  0.75793003  1
  C  C7  1  0.50000000  0.23335891  0.88175965  1
  C  C8  1  0.50000000  0.25992531  0.57032133  1
  C  C9  1  0.50000000  0.26591563  0.69587373  1
  C  C10  1  0.50000000  0.26593074  0.81902092  1
  C  C11  1  0.50000000  0.26549555  0.94163079  1
  C  C12  1  0.50000000  0.33448245  0.06901231  1
  C  C13  1  0.50000000  0.33395212  0.19345487  1
  C  C14  1  0.50000000  0.33436935  0.31836939  1
  C  C15  1  0.50000000  0.33523422  0.44219097  1
  C  C16  1  0.50000000  0.32952315  0.56775471  1
  C  C17  1  0.50000000  0.33315766  0.69402771  1
  C  C18  1  0.50000000  0.33321374  0.81877939  1
  C  C19  1  0.50000000  0.33214220  0.94347984  1
  C  C20  1  0.50000000  0.36566627  0.00696654  1
  C  C21  1  0.50000000  0.36626576  0.13150287  1
  C  C22  1  0.50000000  0.36576183  0.25579606  1
  C  C23  1  0.50000000  0.36711180  0.38004932  1
  C  C24  1  0.50000000  0.36463337  0.50536334  1
  C  C25  1  0.50000000  0.36423723  0.62976593  1
  C  C26  1  0.50000000  0.36646705  0.75586417  1
  C  C27  1  0.50000000  0.36602321  0.88139226  1
  C  C28  1  0.50000000  0.43309424  0.00616235  1
  C  C29  1  0.50000000  0.43365511  0.13108466  1
  C  C30  1  0.50000000  0.43339346  0.25573692  1
  C  C31  1  0.50000000  0.43422244  0.38058863  1
  C  C32  1  0.50000000  0.43258257  0.50604833  1
  C  C33  1  0.50000000  0.43217732  0.63024393  1
  C  C34  1  0.50000000  0.43354604  0.75566672  1
  C  C35  1  0.50000000  0.43331276  0.88111791  1
  C  C36  1  0.50000000  0.46638858  0.06860425  1
  C  C37  1  0.50000000  0.46650251  0.19356962  1
  C  C38  1  0.50000000  0.46662223  0.31797045  1
  C  C39  1  0.50000000  0.46638122  0.44355169  1
  C  C40  1  0.50000000  0.46616619  0.56807405  1
  C  C41  1  0.50000000  0.46616613  0.69266136  1
  C  C42  1  0.50000000  0.46644273  0.81846513  1
  C  C43  1  0.50000000  0.46640521  0.94372528  1
  C  C44  1  0.50000000  0.53361142  0.06860425  1
  C  C45  1  0.50000000  0.53349749  0.19356962  1
  C  C46  1  0.50000000  0.53337777  0.31797045  1
  C  C47  1  0.50000000  0.53361877  0.44355169  1
  C  C48  1  0.50000000  0.53383381  0.56807404  1
  C  C49  1  0.50000000  0.53383384  0.69266137  1
  C  C50  1  0.50000000  0.53355725  0.81846512  1
  C  C51  1  0.50000000  0.53359478  0.94372528  1
  C  C52  1  0.50000000  0.56690576  0.00616235  1
  C  C53  1  0.50000000  0.56634488  0.13108466  1
  C  C54  1  0.50000000  0.56660653  0.25573692  1
  C  C55  1  0.50000000  0.56577755  0.38058863  1
  C  C56  1  0.50000000  0.56741741  0.50604833  1
  C  C57  1  0.50000000  0.56782266  0.63024393  1
  C  C58  1  0.50000000  0.56645395  0.75566672  1
  C  C59  1  0.50000000  0.56668723  0.88111792  1
  C  C60  1  0.50000000  0.63433373  0.00696655  1
  C  C61  1  0.50000000  0.63373423  0.13150288  1
  C  C62  1  0.50000000  0.63423816  0.25579606  1
  C  C63  1  0.50000000  0.63288818  0.38004930  1
  C  C64  1  0.50000000  0.63536663  0.50536334  1
  C  C65  1  0.50000000  0.63576279  0.62976591  1
  C  C66  1  0.50000000  0.63353297  0.75586418  1
  C  C67  1  0.50000000  0.63397679  0.88139226  1
  C  C68  1  0.50000000  0.66551755  0.06901230  1
  C  C69  1  0.50000000  0.66604787  0.19345487  1
  C  C70  1  0.50000000  0.66563066  0.31836938  1
  C  C71  1  0.50000000  0.66476581  0.44219095  1
  C  C72  1  0.50000000  0.67047688  0.56775470  1
  C  C73  1  0.50000000  0.66684235  0.69402771  1
  C  C74  1  0.50000000  0.66678627  0.81877941  1
  C  C75  1  0.50000000  0.66785779  0.94347986  1
  C  C76  1  0.50000000  0.74007464  0.57032132  1
  C  C77  1  0.50000000  0.73408436  0.69587372  1
  C  C78  1  0.50000000  0.73406924  0.81902092  1
  C  C79  1  0.50000000  0.73450445  0.94163079  1
  H  H80  1  0.50000000  0.83490540  0.53760554  1
  H  H81  1  0.50000000  0.81869402  0.63893111  1
  H  H82  1  0.50000000  0.81761831  0.75784851  1
  H  H83  1  0.50000000  0.81794484  0.88108124  1
  H  H84  1  0.50000000  0.16509462  0.53760557  1
  H  H85  1  0.50000000  0.18130601  0.63893112  1
  H  H86  1  0.50000000  0.18238172  0.75784850  1
  H  H87  1  0.50000000  0.18205518  0.88108123  1
  H  H88  1  0.50000000  0.78151388  0.46558380  1
  H  H89  1  0.50000000  0.21848610  0.46558384  1
  H  H90  1  0.50000000  0.23882384  0.98872962  1
  H  H91  1  0.50000000  0.28335300  0.07099085  1
  H  H92  1  0.50000000  0.28261338  0.19334106  1
  H  H93  1  0.50000000  0.28300243  0.31899628  1
  H  H94  1  0.50000000  0.28494577  0.43877842  1
  H  H95  1  0.50000000  0.71664700  0.07099085  1
  H  H96  1  0.50000000  0.71738661  0.19334106  1
  H  H97  1  0.50000000  0.71699757  0.31899628  1
  H  H98  1  0.50000000  0.71505424  0.43877841  1
  H  H99  1  0.50000000  0.76117616  0.98872964  1
