# generated using pymatgen
data_H11C28
_symmetry_space_group_name_H-M   'P 1'
_cell_length_a   10.00000000
_cell_length_b   21.36688000
_cell_length_c   19.88251211
_cell_angle_alpha   90.00000000
_cell_angle_beta   90.00000000
_cell_angle_gamma   90.00000000
_symmetry_Int_Tables_number   1
_chemical_formula_structural   H11C28
_chemical_formula_sum   'H22 C56'
_cell_volume   4248.27250430
_cell_formula_units_Z   2
loop_
 _symmetry_equiv_pos_site_id
 _symmetry_equiv_pos_as_xyz
  1  'x, y, z'
loop_
 _atom_site_type_symbol
 _atom_site_label
 _atom_site_symmetry_multiplicity
 _atom_site_fract_x
 _atom_site_fract_y
 _atom_site_fract_z
 _atom_site_occupancy
  C  C0  1  0.50000000  0.21488869  0.51352449  1
  C  C1  1  0.50000000  0.23509029  0.62781978  1
  C  C2  1  0.50000000  0.23608478  0.74855229  1
  C  C3  1  0.50000000  0.23409514  0.87169552  1
  C  C4  1  0.50000000  0.26195202  0.56244267  1
  C  C5  1  0.50000000  0.26888961  0.68707262  1
  C  C6  1  0.50000000  0.26743115  0.80962947  1
  C  C7  1  0.50000000  0.26535211  0.93178150  1
  C  C8  1  0.50000000  0.33243538  0.06009526  1
  C  C9  1  0.50000000  0.33042545  0.18450877  1
  C  C10  1  0.50000000  0.32964484  0.30930992  1
  C  C11  1  0.50000000  0.33411946  0.43472474  1
  C  C12  1  0.50000000  0.33181570  0.55953990  1
  C  C13  1  0.50000000  0.33630023  0.68514384  1
  C  C14  1  0.50000000  0.33471123  0.80994837  1
  C  C15  1  0.50000000  0.33204834  0.93460708  1
  C  C16  1  0.50000000  0.36445328  -0.00128185  1
  C  C17  1  0.50000000  0.36311208  0.12313700  1
  C  C18  1  0.50000000  0.36162104  0.24709137  1
  C  C19  1  0.50000000  0.36241627  0.37070203  1
  C  C20  1  0.50000000  0.36583460  0.49672054  1
  C  C21  1  0.50000000  0.36751602  0.62066747  1
  C  C22  1  0.50000000  0.36847335  0.74734638  1
  C  C23  1  0.50000000  0.36633142  0.87292327  1
  C  C24  1  0.50000000  0.43249876  -0.00056404  1
  C  C25  1  0.50000000  0.43112534  0.12360903  1
  C  C26  1  0.50000000  0.43020869  0.24702772  1
  C  C27  1  0.50000000  0.42964795  0.36997061  1
  C  C28  1  0.50000000  0.43470374  0.49600676  1
  C  C29  1  0.50000000  0.43645874  0.62047186  1
  C  C30  1  0.50000000  0.43563533  0.74754065  1
  C  C31  1  0.50000000  0.43367955  0.87336832  1
  C  C32  1  0.50000000  0.46315406  0.06107726  1
  C  C33  1  0.50000000  0.46261012  0.18521204  1
  C  C34  1  0.50000000  0.46215453  0.30871400  1
  C  C35  1  0.50000000  0.46149047  0.43180810  1
  C  C36  1  0.50000000  0.47104641  0.55873977  1
  C  C37  1  0.50000000  0.46865522  0.68520321  1
  C  C38  1  0.50000000  0.46759989  0.81118485  1
  C  C39  1  0.50000000  0.46635164  0.93557425  1
  C  C40  1  0.50000000  0.54065725  0.56178244  1
  C  C41  1  0.50000000  0.53597459  0.68753141  1
  C  C42  1  0.50000000  0.53436882  0.81244298  1
  C  C43  1  0.50000000  0.53206807  0.93451364  1
  C  C44  1  0.50000000  0.58270128  0.50633827  1
  C  C45  1  0.50000000  0.57113139  0.62634041  1
  C  C46  1  0.50000000  0.56764377  0.75066282  1
  C  C47  1  0.50000000  0.56679939  0.87572740  1
  C  C48  1  0.50000000  0.64808507  0.51097448  1
  C  C49  1  0.50000000  0.63883652  0.63086904  1
  C  C50  1  0.50000000  0.63529892  0.75365150  1
  C  C51  1  0.50000000  0.63584189  0.87811602  1
  C  C52  1  0.50000000  0.67678808  0.57277613  1
  C  C53  1  0.50000000  0.66880594  0.69351202  1
  C  C54  1  0.50000000  0.66702621  0.81541985  1
  C  C55  1  0.50000000  0.67054059  0.93689601  1
  H  H56  1  0.50000000  0.16662851  0.53239293  1
  H  H57  1  0.50000000  0.18390861  0.63158310  1
  H  H58  1  0.50000000  0.18477816  0.74763806  1
  H  H59  1  0.50000000  0.18281143  0.87027166  1
  H  H60  1  0.50000000  0.72776271  0.57842807  1
  H  H61  1  0.50000000  0.72009578  0.69501634  1
  H  H62  1  0.50000000  0.71835244  0.81484203  1
  H  H63  1  0.50000000  0.72177502  0.93399891  1
  H  H64  1  0.50000000  0.21754889  0.45904972  1
  H  H65  1  0.50000000  0.23809782  0.97828775  1
  H  H66  1  0.50000000  0.28125268  0.06133073  1
  H  H67  1  0.50000000  0.27906187  0.18381308  1
  H  H68  1  0.50000000  0.27826836  0.30943830  1
  H  H69  1  0.50000000  0.28378545  0.43445123  1
  H  H70  1  0.50000000  0.51432631  0.06354107  1
  H  H71  1  0.50000000  0.51396071  0.18607589  1
  H  H72  1  0.50000000  0.51354816  0.30890106  1
  H  H73  1  0.50000000  0.51113943  0.42463698  1
  H  H74  1  0.50000000  0.55744068  0.98206353  1
  H  H75  1  0.50000000  0.56762284  0.45481828  1
  H  H76  1  0.50000000  0.67576580  0.46455173  1
  H  H77  1  0.50000000  0.64981671  0.98716833  1
