# generated using pymatgen
data_H15C44
_symmetry_space_group_name_H-M   'P 1'
_cell_length_a   10.00000000
_cell_length_b   29.89204000
_cell_length_c   19.91768441
_cell_angle_alpha   90.00000000
_cell_angle_beta   90.00000000
_cell_angle_gamma   90.00000000
_symmetry_Int_Tables_number   1
_chemical_formula_structural   H15C44
_chemical_formula_sum   'H30 C88'
_cell_volume   5953.80218952
_cell_formula_units_Z   2
loop_
 _symmetry_equiv_pos_site_id
 _symmetry_equiv_pos_as_xyz
  1  'x, y, z'
loop_
 _atom_site_type_symbol
 _atom_site_label
 _atom_site_symmetry_multiplicity
 _atom_site_fract_x
 _atom_site_fract_y
 _atom_site_fract_z
 _atom_site_occupancy
  C  C0  1  0.50000009  0.19939895  0.52913152  1
  C  C1  1  0.49999969  0.20099561  0.65032801  1
  C  C2  1  0.49999994  0.19850712  0.77259915  1
  C  C3  1  0.50000030  0.19539813  0.89619083  1
  C  C4  1  0.49999982  0.22397171  0.58803782  1
  C  C5  1  0.49999982  0.22303017  0.71242644  1
  C  C6  1  0.50000033  0.22003420  0.83522450  1
  C  C7  1  0.50000021  0.21756038  0.95737745  1
  C  C8  1  0.49999979  0.27321909  0.59036519  1
  C  C9  1  0.49999993  0.27150518  0.71459955  1
  C  C10  1  0.50000053  0.26824083  0.83739981  1
  C  C11  1  0.50000038  0.26445698  0.95958366  1
  C  C12  1  0.49999973  0.29884021  0.53147922  1
  C  C13  1  0.49999983  0.29614983  0.65326122  1
  C  C14  1  0.50000026  0.29407278  0.77683185  1
  C  C15  1  0.50000062  0.29024215  0.90035016  1
  C  C16  1  0.49999964  0.34516803  0.53380334  1
  C  C17  1  0.49999984  0.34414246  0.65580460  1
  C  C18  1  0.50000028  0.34247013  0.77908545  1
  C  C19  1  0.50000047  0.33880521  0.90140080  1
  C  C20  1  0.49999975  0.36874837  0.59502332  1
  C  C21  1  0.49999997  0.36744836  0.71900427  1
  C  C22  1  0.50000037  0.36537494  0.84218223  1
  C  C23  1  0.50000001  0.36167202  0.96208797  1
  C  C24  1  0.49999986  0.41723874  0.59786789  1
  C  C25  1  0.49999988  0.41573824  0.72189334  1
  C  C26  1  0.50000014  0.41392016  0.84553274  1
  C  C27  1  0.49999951  0.40757851  0.96507188  1
  C  C28  1  0.49999982  0.44173447  0.53862399  1
  C  C29  1  0.49999987  0.44034501  0.66079840  1
  C  C30  1  0.50000000  0.43920685  0.78459243  1
  C  C31  1  0.49999986  0.43698645  0.90907576  1
  C  C32  1  0.50000048  0.49181409  0.03938670  1
  C  C33  1  0.50000008  0.48915366  0.16333419  1
  C  C34  1  0.49999996  0.48889609  0.28703746  1
  C  C35  1  0.49999999  0.48901858  0.41119459  1
  C  C36  1  0.49999993  0.48821825  0.53706531  1
  C  C37  1  0.49999994  0.48813299  0.66185432  1
  C  C38  1  0.49999999  0.48764236  0.78683515  1
  C  C39  1  0.49999997  0.48635741  0.91230761  1
  C  C40  1  0.50000009  0.51278654  0.10255901  1
  C  C41  1  0.50000003  0.51191056  0.22521564  1
  C  C42  1  0.49999995  0.51160232  0.34853533  1
  C  C43  1  0.50000000  0.51143381  0.47243012  1
  C  C44  1  0.50000000  0.51181967  0.59935745  1
  C  C45  1  0.49999996  0.51183807  0.72485764  1
  C  C46  1  0.50000004  0.51139892  0.85084959  1
  C  C47  1  0.50000010  0.51176191  0.97571766  1
  C  C48  1  0.50000019  0.56047606  0.10260716  1
  C  C49  1  0.50000005  0.56091923  0.22539212  1
  C  C50  1  0.49999995  0.56020965  0.34869919  1
  C  C51  1  0.50000001  0.55975019  0.47250846  1
  C  C52  1  0.50000009  0.55958114  0.59923329  1
  C  C53  1  0.50000002  0.56006735  0.72474528  1
  C  C54  1  0.50000002  0.56103564  0.85081033  1
  C  C55  1  0.50000017  0.56110151  0.97565132  1
  C  C56  1  0.50000076  0.58129025  0.03925528  1
  C  C57  1  0.50000017  0.58393097  0.16361824  1
  C  C58  1  0.49999996  0.58344857  0.28760912  1
  C  C59  1  0.50000000  0.58240005  0.41153002  1
  C  C60  1  0.50000006  0.58302192  0.53694053  1
  C  C61  1  0.50000011  0.58347798  0.66146567  1
  C  C62  1  0.50000002  0.58446096  0.78666526  1
  C  C63  1  0.49999995  0.58632504  0.91216415  1
  C  C64  1  0.50000003  0.62956035  0.53802706  1
  C  C65  1  0.50000016  0.63128134  0.66005347  1
  C  C66  1  0.50000010  0.63292892  0.78413051  1
  C  C67  1  0.49999969  0.63587694  0.90878211  1
  C  C68  1  0.50000013  0.65423922  0.59689308  1
  C  C69  1  0.50000013  0.65585917  0.72110130  1
  C  C70  1  0.50000006  0.65853350  0.84493242  1
  C  C71  1  0.49999897  0.66569596  0.96432161  1
  C  C72  1  0.50000000  0.70284940  0.59340271  1
  C  C73  1  0.50000015  0.70406055  0.71775217  1
  C  C74  1  0.50000014  0.70711187  0.84102819  1
  C  C75  1  0.49999946  0.71174907  0.96063674  1
  C  C76  1  0.49999979  0.72643256  0.53211611  1
  C  C77  1  0.50000006  0.72706599  0.65439062  1
  C  C78  1  0.50000020  0.72911129  0.77741450  1
  C  C79  1  0.50000017  0.73430839  0.89982062  1
  C  C80  1  0.49999947  0.77327962  0.52994268  1
  C  C81  1  0.49999984  0.77519758  0.65191231  1
  C  C82  1  0.50000011  0.77769029  0.77457868  1
  C  C83  1  0.50000036  0.78352389  0.89774744  1
  C  C84  1  0.49999940  0.79754864  0.58915148  1
  C  C85  1  0.50000004  0.79937577  0.71212146  1
  C  C86  1  0.50000004  0.80334165  0.83336262  1
  C  C87  1  0.50000079  0.81034414  0.95447411  1
  H  H88  1  0.50000023  0.16279318  0.53197180  1
  H  H89  1  0.49999974  0.16430084  0.64987526  1
  H  H90  1  0.49999977  0.16183617  0.77019901  1
  H  H91  1  0.50000006  0.15873541  0.89373396  1
  H  H92  1  0.49999916  0.83419235  0.58885131  1
  H  H93  1  0.49999995  0.83605844  0.71058411  1
  H  H94  1  0.49999999  0.83992130  0.82897558  1
  H  H95  1  0.50000053  0.84681861  0.94864671  1
  H  H96  1  0.50000019  0.21424505  0.47899303  1
  H  H97  1  0.49999997  0.28223663  0.48252154  1
  H  H98  1  0.49999969  0.36314394  0.48608742  1
  H  H99  1  0.49999978  0.42381308  0.49116554  1
  H  H100  1  0.50000153  0.45642166  0.04573430  1
  H  H101  1  0.50000007  0.45243494  0.16310745  1
  H  H102  1  0.49999993  0.45218610  0.28647093  1
  H  H103  1  0.49999998  0.45243180  0.40909548  1
  H  H104  1  0.50000233  0.61674010  0.04505706  1
  H  H105  1  0.50000016  0.62066015  0.16366752  1
  H  H106  1  0.49999992  0.62018265  0.28781193  1
  H  H107  1  0.50000003  0.61896569  0.40973114  1
  H  H108  1  0.49999988  0.64740135  0.49050583  1
  H  H109  1  0.50000024  0.70847778  0.48435498  1
  H  H110  1  0.49999934  0.79052269  0.48136612  1
  H  H111  1  0.49999977  0.19855086  0.00445745  1
  H  H112  1  0.49999992  0.28071500  0.00875753  1
  H  H113  1  0.49999968  0.34363185  0.00976140  1
  H  H114  1  0.49999835  0.41810419  0.01631544  1
  H  H115  1  0.49999735  0.65556476  0.01581936  1
  H  H116  1  0.49999891  0.73016498  0.00808042  1
  H  H117  1  0.50000164  0.79729515  0.00573838  1
