# generated using pymatgen
data_HC4
_symmetry_space_group_name_H-M   'P 1'
_cell_length_a   10.00000000
_cell_length_b   25.62946000
_cell_length_c   19.83771005
_cell_angle_alpha   90.00000000
_cell_angle_beta   90.00000000
_cell_angle_gamma   90.00000000
_symmetry_Int_Tables_number   1
_chemical_formula_structural   HC4
_chemical_formula_sum   'H24 C96'
_cell_volume   5084.29796186
_cell_formula_units_Z   24
loop_
 _symmetry_equiv_pos_site_id
 _symmetry_equiv_pos_as_xyz
  1  'x, y, z'
loop_
 _atom_site_type_symbol
 _atom_site_label
 _atom_site_symmetry_multiplicity
 _atom_site_fract_x
 _atom_site_fract_y
 _atom_site_fract_z
 _atom_site_occupancy
  C  C0  1  0.50000000  0.80904961  0.50744873  1
  C  C1  1  0.50000000  0.80627408  0.62895221  1
  C  C2  1  0.50000000  0.80780060  0.75073045  1
  C  C3  1  0.50000000  0.81464302  0.87138676  1
  C  C4  1  0.50000000  0.19095033  0.50744879  1
  C  C5  1  0.50000000  0.19372588  0.62895224  1
  C  C6  1  0.50000000  0.19219941  0.75073036  1
  C  C7  1  0.50000000  0.18535704  0.87138686  1
  C  C8  1  0.50000000  0.21989189  0.56634487  1
  C  C9  1  0.50000000  0.22028150  0.69065262  1
  C  C10  1  0.50000000  0.21720887  0.81337491  1
  C  C11  1  0.50000000  0.20935075  0.93324383  1
  C  C12  1  0.50000000  0.27738684  0.56917170  1
  C  C13  1  0.50000000  0.27669337  0.69379380  1
  C  C14  1  0.50000000  0.27372822  0.81788838  1
  C  C15  1  0.50000000  0.26377305  0.93790635  1
  C  C16  1  0.50000000  0.30623071  0.51033331  1
  C  C17  1  0.50000000  0.30473434  0.63231191  1
  C  C18  1  0.50000000  0.30323514  0.75672786  1
  C  C19  1  0.50000000  0.29911291  0.88245141  1
  C  C20  1  0.50000000  0.36410707  0.01161680  1
  C  C21  1  0.50000000  0.36257091  0.13477279  1
  C  C22  1  0.50000000  0.36166831  0.25974693  1
  C  C23  1  0.50000000  0.36242731  0.38406659  1
  C  C24  1  0.50000000  0.36086007  0.50950377  1
  C  C25  1  0.50000000  0.36048804  0.63375603  1
  C  C26  1  0.50000000  0.35937631  0.75896814  1
  C  C27  1  0.50000000  0.35699837  0.88508120  1
  C  C28  1  0.50000000  0.39034900  0.07350995  1
  C  C29  1  0.50000000  0.38822723  0.19748346  1
  C  C30  1  0.50000000  0.38866876  0.32147062  1
  C  C31  1  0.50000000  0.38857207  0.44569105  1
  C  C32  1  0.50000000  0.38868444  0.57172795  1
  C  C33  1  0.50000000  0.38785697  0.69712495  1
  C  C34  1  0.50000000  0.38607169  0.82311429  1
  C  C35  1  0.50000000  0.38704689  0.94770075  1
  C  C36  1  0.50000000  0.44587821  0.07263873  1
  C  C37  1  0.50000000  0.44452874  0.19748980  1
  C  C38  1  0.50000000  0.44476399  0.32187927  1
  C  C39  1  0.50000000  0.44456542  0.44676124  1
  C  C40  1  0.50000000  0.44455124  0.57216708  1
  C  C41  1  0.50000000  0.44399340  0.69743131  1
  C  C42  1  0.50000000  0.44306450  0.82253626  1
  C  C43  1  0.50000000  0.44379595  0.94667672  1
  C  C44  1  0.50000000  0.47204023  0.00920165  1
  C  C45  1  0.50000000  0.47231830  0.13543952  1
  C  C46  1  0.50000000  0.47210773  0.25950949  1
  C  C47  1  0.50000000  0.47206632  0.38422207  1
  C  C48  1  0.50000000  0.47210089  0.50940453  1
  C  C49  1  0.50000000  0.47195885  0.63486189  1
  C  C50  1  0.50000000  0.47162695  0.76032218  1
  C  C51  1  0.50000000  0.47173610  0.88459310  1
  C  C52  1  0.50000000  0.52795978  0.00920166  1
  C  C53  1  0.50000000  0.52768170  0.13543953  1
  C  C54  1  0.50000000  0.52789227  0.25950948  1
  C  C55  1  0.50000000  0.52793369  0.38422203  1
  C  C56  1  0.50000000  0.52789911  0.50940454  1
  C  C57  1  0.50000000  0.52804111  0.63486202  1
  C  C58  1  0.50000000  0.52837301  0.76032215  1
  C  C59  1  0.50000000  0.52826390  0.88459313  1
  C  C60  1  0.50000000  0.55412180  0.07263875  1
  C  C61  1  0.50000000  0.55547125  0.19748980  1
  C  C62  1  0.50000000  0.55523602  0.32187929  1
  C  C63  1  0.50000000  0.55543457  0.44676129  1
  C  C64  1  0.50000000  0.55544877  0.57216703  1
  C  C65  1  0.50000000  0.55600660  0.69743136  1
  C  C66  1  0.50000000  0.55693547  0.82253629  1
  C  C67  1  0.50000000  0.55620407  0.94667675  1
  C  C68  1  0.50000000  0.60965100  0.07350995  1
  C  C69  1  0.50000000  0.61177276  0.19748348  1
  C  C70  1  0.50000000  0.61133124  0.32147059  1
  C  C71  1  0.50000000  0.61142795  0.44569100  1
  C  C72  1  0.50000000  0.61131554  0.57172799  1
  C  C73  1  0.50000000  0.61214299  0.69712498  1
  C  C74  1  0.50000000  0.61392828  0.82311435  1
  C  C75  1  0.50000000  0.61295312  0.94770078  1
  C  C76  1  0.50000000  0.63589294  0.01161682  1
  C  C77  1  0.50000000  0.63742907  0.13477279  1
  C  C78  1  0.50000000  0.63833167  0.25974692  1
  C  C79  1  0.50000000  0.63757269  0.38406660  1
  C  C80  1  0.50000000  0.63913993  0.50950376  1
  C  C81  1  0.50000000  0.63951197  0.63375598  1
  C  C82  1  0.50000000  0.64062369  0.75896820  1
  C  C83  1  0.50000000  0.64300163  0.88508126  1
  C  C84  1  0.50000000  0.69376930  0.51033332  1
  C  C85  1  0.50000000  0.69526573  0.63231187  1
  C  C86  1  0.50000000  0.69676489  0.75672789  1
  C  C87  1  0.50000000  0.70088707  0.88245149  1
  C  C88  1  0.50000000  0.72261318  0.56917174  1
  C  C89  1  0.50000000  0.72330664  0.69379383  1
  C  C90  1  0.50000000  0.72627179  0.81788842  1
  C  C91  1  0.50000000  0.73622693  0.93790629  1
  C  C92  1  0.50000000  0.78010796  0.56634493  1
  C  C93  1  0.50000000  0.77971843  0.69065257  1
  C  C94  1  0.50000000  0.78279108  0.81337497  1
  C  C95  1  0.50000000  0.79064918  0.93324396  1
  H  H96  1  0.50000000  0.85174598  0.51066223  1
  H  H97  1  0.50000000  0.84906068  0.62969507  1
  H  H98  1  0.50000000  0.85057865  0.74921834  1
  H  H99  1  0.50000000  0.85714932  0.86568859  1
  H  H100  1  0.50000000  0.14825420  0.51066235  1
  H  H101  1  0.50000000  0.15093952  0.62969508  1
  H  H102  1  0.50000000  0.14942149  0.74921831  1
  H  H103  1  0.50000000  0.14285073  0.86568859  1
  H  H104  1  0.50000000  0.79198928  0.45696667  1
  H  H105  1  0.50000000  0.20801053  0.45696693  1
  H  H106  1  0.50000000  0.18659040  0.97999859  1
  H  H107  1  0.50000000  0.27562543  0.98976304  1
  H  H108  1  0.50000000  0.28508731  0.46273719  1
  H  H109  1  0.50000000  0.32274318  0.01796643  1
  H  H110  1  0.50000000  0.31978121  0.13350821  1
  H  H111  1  0.50000000  0.31887695  0.25995135  1
  H  H112  1  0.50000000  0.31981411  0.38226515  1
  H  H113  1  0.50000000  0.67725684  0.01796641  1
  H  H114  1  0.50000000  0.68021875  0.13350820  1
  H  H115  1  0.50000000  0.68112303  0.25995136  1
  H  H116  1  0.50000000  0.68018594  0.38226519  1
  H  H117  1  0.50000000  0.71491274  0.46273709  1
  H  H118  1  0.50000000  0.72437454  0.98976312  1
  H  H119  1  0.50000000  0.81340960  0.97999860  1
