# generated using pymatgen
data_H7C24
_symmetry_space_group_name_H-M   'P 1'
_cell_length_a   10.00000000
_cell_length_b   29.89204000
_cell_length_c   19.74879100
_cell_angle_alpha   90.00000000
_cell_angle_beta   90.00000000
_cell_angle_gamma   90.00000000
_symmetry_Int_Tables_number   1
_chemical_formula_structural   H7C24
_chemical_formula_sum   'H28 C96'
_cell_volume   5903.31650534
_cell_formula_units_Z   4
loop_
 _symmetry_equiv_pos_site_id
 _symmetry_equiv_pos_as_xyz
  1  'x, y, z'
loop_
 _atom_site_type_symbol
 _atom_site_label
 _atom_site_symmetry_multiplicity
 _atom_site_fract_x
 _atom_site_fract_y
 _atom_site_fract_z
 _atom_site_occupancy
  C  C0  1  0.50000000  0.19887696  0.03336843  1
  C  C1  1  0.50000000  0.19642923  0.15873061  1
  C  C2  1  0.50000000  0.19503655  0.28516790  1
  C  C3  1  0.50000000  0.19650128  0.41241047  1
  C  C4  1  0.50000000  0.19947797  0.53815608  1
  C  C5  1  0.50000000  0.20209772  0.66175704  1
  C  C6  1  0.50000000  0.20247738  0.78501826  1
  C  C7  1  0.50000000  0.20115884  0.90890984  1
  C  C8  1  0.50000000  0.22036575  0.09682020  1
  C  C9  1  0.50000000  0.21810847  0.22235810  1
  C  C10  1  0.50000000  0.21771128  0.34822556  1
  C  C11  1  0.50000000  0.22059066  0.47446295  1
  C  C12  1  0.50000000  0.22412776  0.59901671  1
  C  C13  1  0.50000000  0.22569313  0.72310751  1
  C  C14  1  0.50000000  0.22487058  0.84742667  1
  C  C15  1  0.50000000  0.22306094  0.97195909  1
  C  C16  1  0.50000000  0.26892772  0.09756750  1
  C  C17  1  0.50000000  0.26662457  0.22261149  1
  C  C18  1  0.50000000  0.26604639  0.34754864  1
  C  C19  1  0.50000000  0.26911614  0.47351260  1
  C  C20  1  0.50000000  0.27268588  0.59812253  1
  C  C21  1  0.50000000  0.27426805  0.72263934  1
  C  C22  1  0.50000000  0.27338669  0.84779756  1
  C  C23  1  0.50000000  0.27156655  0.97278911  1
  C  C24  1  0.50000000  0.29403167  0.03589588  1
  C  C25  1  0.50000000  0.29112760  0.16073565  1
  C  C26  1  0.50000000  0.28974028  0.28515047  1
  C  C27  1  0.50000000  0.29005637  0.40939700  1
  C  C28  1  0.50000000  0.29497422  0.53509403  1
  C  C29  1  0.50000000  0.29767644  0.66000501  1
  C  C30  1  0.50000000  0.29764052  0.78548576  1
  C  C31  1  0.50000000  0.29620715  0.91061670  1
  C  C32  1  0.50000000  0.34248433  0.03760398  1
  C  C33  1  0.50000000  0.33944610  0.16167958  1
  C  C34  1  0.50000000  0.33818386  0.28500548  1
  C  C35  1  0.50000000  0.33770933  0.40792740  1
  C  C36  1  0.50000000  0.34377145  0.53342258  1
  C  C37  1  0.50000000  0.34626794  0.65918603  1
  C  C38  1  0.50000000  0.34562594  0.78557932  1
  C  C39  1  0.50000000  0.34425472  0.91126767  1
  C  C40  1  0.50000000  0.36353079  0.09998954  1
  C  C41  1  0.50000000  0.36176085  0.22356358  1
  C  C42  1  0.50000000  0.36098846  0.34668933  1
  C  C43  1  0.50000000  0.36181742  0.46863649  1
  C  C44  1  0.50000000  0.37007339  0.59653009  1
  C  C45  1  0.50000000  0.36984499  0.72324189  1
  C  C46  1  0.50000000  0.36888724  0.84908686  1
  C  C47  1  0.50000000  0.36762583  0.97408454  1
  C  C48  1  0.50000000  0.41896084  0.59913534  1
  C  C49  1  0.50000000  0.41788912  0.72504495  1
  C  C50  1  0.50000000  0.41681564  0.85014757  1
  C  C51  1  0.50000000  0.41452270  0.97331014  1
  C  C52  1  0.50000000  0.44727404  0.54158098  1
  C  C53  1  0.50000000  0.44239352  0.66295503  1
  C  C54  1  0.50000000  0.44141753  0.78818361  1
  C  C55  1  0.50000000  0.43989072  0.91372044  1
  C  C56  1  0.50000000  0.49300401  0.54365991  1
  C  C57  1  0.50000000  0.49069635  0.66535657  1
  C  C58  1  0.50000000  0.48961208  0.78982705  1
  C  C59  1  0.50000000  0.48868185  0.91505194  1
  C  C60  1  0.50000000  0.51626753  0.60478199  1
  C  C61  1  0.50000000  0.51421745  0.72850496  1
  C  C62  1  0.50000000  0.51319700  0.85310885  1
  C  C63  1  0.50000000  0.51315573  0.97614625  1
  C  C64  1  0.50000000  0.56435436  0.60484208  1
  C  C65  1  0.50000000  0.56249726  0.72931285  1
  C  C66  1  0.50000000  0.56134172  0.85397776  1
  C  C67  1  0.50000000  0.55947574  0.97700267  1
  C  C68  1  0.50000000  0.58897710  0.54394959  1
  C  C69  1  0.50000000  0.58752689  0.66735719  1
  C  C70  1  0.50000000  0.58601554  0.79172283  1
  C  C71  1  0.50000000  0.58487960  0.91683662  1
  C  C72  1  0.50000000  0.63514891  0.54396120  1
  C  C73  1  0.50000000  0.63541565  0.66735805  1
  C  C74  1  0.50000000  0.63425684  0.79218501  1
  C  C75  1  0.50000000  0.63362043  0.91750235  1
  C  C76  1  0.50000000  0.65954227  0.60484493  1
  C  C77  1  0.50000000  0.65871797  0.73045526  1
  C  C78  1  0.50000000  0.65792528  0.85528479  1
  C  C79  1  0.50000000  0.65827817  0.97828972  1
  C  C80  1  0.50000000  0.70818738  0.60474845  1
  C  C81  1  0.50000000  0.70679874  0.73068878  1
  C  C82  1  0.50000000  0.70606566  0.85580977  1
  C  C83  1  0.50000000  0.70475616  0.97878838  1
  C  C84  1  0.50000000  0.73339693  0.54437139  1
  C  C85  1  0.50000000  0.73108063  0.66798437  1
  C  C86  1  0.50000000  0.72997398  0.79296823  1
  C  C87  1  0.50000000  0.72977578  0.91865290  1
  C  C88  1  0.50000000  0.78032386  0.54548136  1
  C  C89  1  0.50000000  0.77928118  0.66888051  1
  C  C90  1  0.50000000  0.77841164  0.79342544  1
  C  C91  1  0.50000000  0.77911678  0.91908900  1
  C  C92  1  0.50000000  0.80311940  0.60664279  1
  C  C93  1  0.50000000  0.80169592  0.73148080  1
  C  C94  1  0.50000000  0.80125464  0.85543074  1
  C  C95  1  0.50000000  0.80466528  0.97752842  1
  H  H96  1  0.50000000  0.16219596  0.03147479  1
  H  H97  1  0.50000000  0.15972071  0.15703710  1
  H  H98  1  0.50000000  0.15831276  0.28478650  1
  H  H99  1  0.50000000  0.15981065  0.41485603  1
  H  H100  1  0.50000000  0.16281217  0.54120184  1
  H  H101  1  0.50000000  0.16541258  0.66283792  1
  H  H102  1  0.50000000  0.16578002  0.78429497  1
  H  H103  1  0.50000000  0.16447957  0.90746733  1
  H  H104  1  0.50000000  0.83978603  0.60782354  1
  H  H105  1  0.50000000  0.83838707  0.73178133  1
  H  H106  1  0.50000000  0.83795227  0.85473535  1
  H  H107  1  0.50000000  0.84123021  0.97338584  1
  H  H108  1  0.50000000  0.40006588  0.10373304  1
  H  H109  1  0.50000000  0.39842584  0.22459783  1
  H  H110  1  0.50000000  0.39766762  0.34674023  1
  H  H111  1  0.50000000  0.39688093  0.45816351  1
  H  H112  1  0.50000000  0.43204253  0.02170167  1
  H  H113  1  0.50000000  0.43538785  0.49055549  1
  H  H114  1  0.50000000  0.51045089  0.49512609  1
  H  H115  1  0.50000000  0.49563494  0.02476930  1
  H  H116  1  0.50000000  0.57627924  0.02619105  1
  H  H117  1  0.50000000  0.57169260  0.49525279  1
  H  H118  1  0.50000000  0.65245294  0.49518156  1
  H  H119  1  0.50000000  0.64085090  0.02693771  1
  H  H120  1  0.50000000  0.72202565  0.02766263  1
  H  H121  1  0.50000000  0.71660469  0.49514890  1
  H  H122  1  0.50000000  0.79895323  0.49762295  1
  H  H123  1  0.50000000  0.79052958  0.02853260  1
