# generated using pymatgen
data_H15C44
_symmetry_space_group_name_H-M   'P 1'
_cell_length_a   10.00000000
_cell_length_b   29.89204000
_cell_length_c   19.91791672
_cell_angle_alpha   90.00000000
_cell_angle_beta   90.00000000
_cell_angle_gamma   90.00000000
_symmetry_Int_Tables_number   1
_chemical_formula_structural   H15C44
_chemical_formula_sum   'H30 C88'
_cell_volume   5953.87163239
_cell_formula_units_Z   2
loop_
 _symmetry_equiv_pos_site_id
 _symmetry_equiv_pos_as_xyz
  1  'x, y, z'
loop_
 _atom_site_type_symbol
 _atom_site_label
 _atom_site_symmetry_multiplicity
 _atom_site_fract_x
 _atom_site_fract_y
 _atom_site_fract_z
 _atom_site_occupancy
  C  C0  1  0.50000000  0.19314044  0.51737295  1
  C  C1  1  0.50000000  0.19791494  0.63891278  1
  C  C2  1  0.50000000  0.19948260  0.76190530  1
  C  C3  1  0.50000000  0.20022172  0.88535002  1
  C  C4  1  0.50000000  0.21909234  0.57504370  1
  C  C5  1  0.50000000  0.22170367  0.69972798  1
  C  C6  1  0.50000000  0.22312007  0.82298088  1
  C  C7  1  0.50000000  0.22397694  0.94512110  1
  C  C8  1  0.50000000  0.26839715  0.57439468  1
  C  C9  1  0.50000000  0.27016527  0.69892961  1
  C  C10  1  0.50000000  0.27135857  0.82236669  1
  C  C11  1  0.50000000  0.27090369  0.94458649  1
  C  C12  1  0.50000000  0.29255338  0.51403596  1
  C  C13  1  0.50000000  0.29292861  0.63602050  1
  C  C14  1  0.50000000  0.29471223  0.75960578  1
  C  C15  1  0.50000000  0.29533691  0.88413676  1
  C  C16  1  0.50000000  0.33893972  0.51338783  1
  C  C17  1  0.50000000  0.34091019  0.63549028  1
  C  C18  1  0.50000000  0.34290658  0.75856603  1
  C  C19  1  0.50000000  0.34412866  0.88272413  1
  C  C20  1  0.50000000  0.36389363  0.57335814  1
  C  C21  1  0.50000000  0.36621000  0.69666364  1
  C  C22  1  0.50000000  0.36747686  0.82019923  1
  C  C23  1  0.50000000  0.36948728  0.94215435  1
  C  C24  1  0.50000000  0.41216123  0.57315414  1
  C  C25  1  0.50000000  0.41463449  0.69547297  1
  C  C26  1  0.50000000  0.41556741  0.81875171  1
  C  C27  1  0.50000000  0.41572167  0.94082030  1
  C  C28  1  0.50000000  0.43547131  0.51276654  1
  C  C29  1  0.50000000  0.43819707  0.63290050  1
  C  C30  1  0.50000000  0.43933381  0.75600114  1
  C  C31  1  0.50000000  0.43982466  0.88001027  1
  C  C32  1  0.50000000  0.48129408  0.51074213  1
  C  C33  1  0.50000000  0.48678436  0.63042102  1
  C  C34  1  0.50000000  0.48763516  0.75407254  1
  C  C35  1  0.50000000  0.48835185  0.87836796  1
  C  C36  1  0.50000000  0.51030498  0.56721356  1
  C  C37  1  0.50000000  0.51159801  0.69171188  1
  C  C38  1  0.50000000  0.51183134  0.81567133  1
  C  C39  1  0.50000000  0.51262596  0.93807154  1
  C  C40  1  0.50000000  0.56048802  0.06652234  1
  C  C41  1  0.50000000  0.56148419  0.19117487  1
  C  C42  1  0.50000000  0.56299840  0.31463556  1
  C  C43  1  0.50000000  0.56582533  0.43785571  1
  C  C44  1  0.50000000  0.55961835  0.56453788  1
  C  C45  1  0.50000000  0.56001823  0.69000368  1
  C  C46  1  0.50000000  0.55968345  0.81535252  1
  C  C47  1  0.50000000  0.55920290  0.94022588  1
  C  C48  1  0.50000000  0.58256579  0.00498054  1
  C  C49  1  0.50000000  0.58345507  0.12908246  1
  C  C50  1  0.50000000  0.58522549  0.25244801  1
  C  C51  1  0.50000000  0.58703759  0.37498957  1
  C  C52  1  0.50000000  0.58549044  0.50150914  1
  C  C53  1  0.50000000  0.58418283  0.62624793  1
  C  C54  1  0.50000000  0.58367203  0.75249075  1
  C  C55  1  0.50000000  0.58307909  0.87812154  1
  C  C56  1  0.50000000  0.63094232  0.00483618  1
  C  C57  1  0.50000000  0.63205455  0.12851870  1
  C  C58  1  0.50000000  0.63425300  0.25185750  1
  C  C59  1  0.50000000  0.63477532  0.37486817  1
  C  C60  1  0.50000000  0.63480041  0.50182768  1
  C  C61  1  0.50000000  0.63374026  0.62661680  1
  C  C62  1  0.50000000  0.63184988  0.75307208  1
  C  C63  1  0.50000000  0.63094253  0.87863310  1
  C  C64  1  0.50000000  0.65383602  0.06557391  1
  C  C65  1  0.50000000  0.65601262  0.18907134  1
  C  C66  1  0.50000000  0.65779733  0.31339013  1
  C  C67  1  0.50000000  0.65550335  0.43838134  1
  C  C68  1  0.50000000  0.65951694  0.56547535  1
  C  C69  1  0.50000000  0.65633504  0.69130283  1
  C  C70  1  0.50000000  0.65498838  0.81665784  1
  C  C71  1  0.50000000  0.65442482  0.94084786  1
  C  C72  1  0.50000000  0.70922994  0.56940012  1
  C  C73  1  0.50000000  0.70454885  0.69449547  1
  C  C74  1  0.50000000  0.70276081  0.81859859  1
  C  C75  1  0.50000000  0.70115862  0.94021850  1
  C  C76  1  0.50000000  0.74011033  0.51487365  1
  C  C77  1  0.50000000  0.73039054  0.63413714  1
  C  C78  1  0.50000000  0.72696091  0.75759745  1
  C  C79  1  0.50000000  0.72591805  0.88175825  1
  C  C80  1  0.50000000  0.78673467  0.52037846  1
  C  C81  1  0.50000000  0.77882976  0.63954236  1
  C  C82  1  0.50000000  0.77529715  0.76161892  1
  C  C83  1  0.50000000  0.77511416  0.88543485  1
  C  C84  1  0.50000000  0.80669433  0.58239814  1
  C  C85  1  0.50000000  0.79980596  0.70224663  1
  C  C86  1  0.50000000  0.79779317  0.82333123  1
  C  C87  1  0.50000000  0.79948971  0.94456459  1
  H  H88  1  0.50000000  0.15658531  0.52171274  1
  H  H89  1  0.50000000  0.16121262  0.64077256  1
  H  H90  1  0.50000000  0.16278149  0.76267366  1
  H  H91  1  0.50000000  0.16356725  0.88511107  1
  H  H92  1  0.50000000  0.84306092  0.58896549  1
  H  H93  1  0.50000000  0.83644911  0.70438070  1
  H  H94  1  0.50000000  0.83448727  0.82290521  1
  H  H95  1  0.50000000  0.83610972  0.94212173  1
  H  H96  1  0.50000000  0.20702150  0.46657833  1
  H  H97  1  0.50000000  0.20615890  0.99321089  1
  H  H98  1  0.50000000  0.28842688  0.99273650  1
  H  H99  1  0.50000000  0.27470448  0.46609318  1
  H  H100  1  0.50000000  0.35582512  0.46474255  1
  H  H101  1  0.50000000  0.35278601  0.99097354  1
  H  H102  1  0.50000000  0.43325437  0.98893433  1
  H  H103  1  0.50000000  0.41792279  0.46464948  1
  H  H104  1  0.50000000  0.49216002  0.45968971  1
  H  H105  1  0.50000000  0.49441132  0.98536597  1
  H  H106  1  0.50000000  0.52389770  0.06892697  1
  H  H107  1  0.50000000  0.52478265  0.19297873  1
  H  H108  1  0.50000000  0.52629082  0.31562849  1
  H  H109  1  0.50000000  0.53049487  0.43113194  1
  H  H110  1  0.50000000  0.69038812  0.06682340  1
  H  H111  1  0.50000000  0.69272169  0.18741397  1
  H  H112  1  0.50000000  0.69453051  0.31258881  1
  H  H113  1  0.50000000  0.69107354  0.43365827  1
  H  H114  1  0.50000000  0.71917450  0.98769494  1
  H  H115  1  0.50000000  0.73056576  0.46297388  1
  H  H116  1  0.50000000  0.80664899  0.47418489  1
  H  H117  1  0.50000000  0.78455752  0.99465790  1
