# generated using pymatgen
data_H7C20
_symmetry_space_group_name_H-M   'P 1'
_cell_length_a   10.00000000
_cell_length_b   25.62946000
_cell_length_c   19.88013163
_cell_angle_alpha   90.00000000
_cell_angle_beta   90.00000000
_cell_angle_gamma   90.00000000
_symmetry_Int_Tables_number   1
_chemical_formula_structural   H7C20
_chemical_formula_sum   'H28 C80'
_cell_volume   5095.17038367
_cell_formula_units_Z   4
loop_
 _symmetry_equiv_pos_site_id
 _symmetry_equiv_pos_as_xyz
  1  'x, y, z'
loop_
 _atom_site_type_symbol
 _atom_site_label
 _atom_site_symmetry_multiplicity
 _atom_site_fract_x
 _atom_site_fract_y
 _atom_site_fract_z
 _atom_site_occupancy
  C  C0  1  0.49999899  0.81586516  0.54773664  1
  C  C1  1  0.50000110  0.81062406  0.66961093  1
  C  C2  1  0.50000263  0.80905721  0.79280311  1
  C  C3  1  0.50000208  0.80859930  0.91647096  1
  C  C4  1  0.50000099  0.17564823  0.55329513  1
  C  C5  1  0.49999997  0.19359949  0.66717921  1
  C  C6  1  0.49999923  0.19552764  0.78793539  1
  C  C7  1  0.49999934  0.19487933  0.91067202  1
  C  C8  1  0.50000064  0.21543743  0.60149321  1
  C  C9  1  0.49999950  0.22225756  0.72608176  1
  C  C10  1  0.49999921  0.22231341  0.84846915  1
  C  C11  1  0.49999998  0.22141725  0.97029352  1
  C  C12  1  0.49999991  0.27643152  0.09690552  1
  C  C13  1  0.49999938  0.27283664  0.22099964  1
  C  C14  1  0.49999950  0.27072963  0.34612715  1
  C  C15  1  0.50000032  0.27437714  0.47254669  1
  C  C16  1  0.50000064  0.27359052  0.59766426  1
  C  C17  1  0.49999982  0.27841774  0.72332524  1
  C  C18  1  0.49999969  0.27841312  0.84799187  1
  C  C19  1  0.50000020  0.27691137  0.97222074  1
  C  C20  1  0.50000028  0.30380558  0.03608464  1
  C  C21  1  0.49999982  0.30113914  0.16029970  1
  C  C22  1  0.49999962  0.29798310  0.28412243  1
  C  C23  1  0.50000011  0.29751976  0.40801039  1
  C  C24  1  0.50000061  0.30132211  0.53436992  1
  C  C25  1  0.50000032  0.30383060  0.65870700  1
  C  C26  1  0.50000002  0.30605215  0.78507462  1
  C  C27  1  0.50000017  0.30535207  0.91047843  1
  C  C28  1  0.50000034  0.36049061  0.03699839  1
  C  C29  1  0.50000031  0.35785469  0.16123520  1
  C  C30  1  0.50000018  0.35506750  0.28455100  1
  C  C31  1  0.49999982  0.35348731  0.40729674  1
  C  C32  1  0.50000003  0.35873076  0.53329742  1
  C  C33  1  0.50000050  0.36122218  0.65817845  1
  C  C34  1  0.50000051  0.36200849  0.78477004  1
  C  C35  1  0.50000039  0.36142769  0.91054274  1
  C  C36  1  0.50000047  0.38537969  0.09910132  1
  C  C37  1  0.50000048  0.38307873  0.22344313  1
  C  C38  1  0.50000016  0.38104783  0.34648547  1
  C  C39  1  0.49999864  0.38031232  0.46880734  1
  C  C40  1  0.50000047  0.38935267  0.59616102  1
  C  C41  1  0.50000061  0.38927873  0.72214753  1
  C  C42  1  0.50000045  0.38935734  0.84792421  1
  C  C43  1  0.50000012  0.38889539  0.97283085  1
  C  C44  1  0.50000079  0.44669671  0.59890349  1
  C  C45  1  0.49999993  0.44554729  0.72384455  1
  C  C46  1  0.49999970  0.44510803  0.84837050  1
  C  C47  1  0.49999927  0.44350119  0.97109711  1
  C  C48  1  0.50000260  0.47991863  0.54197151  1
  C  C49  1  0.49999958  0.47420079  0.66219984  1
  C  C50  1  0.49999930  0.47328028  0.78644652  1
  C  C51  1  0.49999898  0.47222669  0.91140656  1
  C  C52  1  0.50000034  0.53338062  0.54384349  1
  C  C53  1  0.49999857  0.53071463  0.66447903  1
  C  C54  1  0.49999834  0.52954943  0.78806476  1
  C  C55  1  0.49999837  0.52897710  0.91260250  1
  C  C56  1  0.49999838  0.56072663  0.60431626  1
  C  C57  1  0.49999792  0.55820502  0.72722065  1
  C  C58  1  0.49999815  0.55720363  0.85101037  1
  C  C59  1  0.49999875  0.55732741  0.97333036  1
  C  C60  1  0.49999823  0.61704229  0.60457833  1
  C  C61  1  0.49999813  0.61463696  0.72829410  1
  C  C62  1  0.49999895  0.61331305  0.85220278  1
  C  C63  1  0.49999973  0.61131078  0.97437142  1
  C  C64  1  0.49999878  0.64608621  0.54445705  1
  C  C65  1  0.49999844  0.64393514  0.66682645  1
  C  C66  1  0.49999934  0.64183730  0.79029396  1
  C  C67  1  0.50000005  0.64072518  0.91469448  1
  C  C68  1  0.49999925  0.70017687  0.54490822  1
  C  C69  1  0.49999963  0.69989149  0.66717850  1
  C  C70  1  0.50000116  0.69804439  0.79106097  1
  C  C71  1  0.50000131  0.69767366  0.91579989  1
  C  C72  1  0.49999974  0.72839815  0.60532493  1
  C  C73  1  0.50000115  0.72649753  0.73016948  1
  C  C74  1  0.50000234  0.72546371  0.85380458  1
  C  C75  1  0.50000068  0.72633098  0.97622007  1
  C  C76  1  0.50000003  0.78586090  0.60570138  1
  C  C77  1  0.50000196  0.78299200  0.73066002  1
  C  C78  1  0.50000289  0.78169817  0.85412707  1
  C  C79  1  0.50000085  0.78107092  0.97646434  1
  H  H80  1  0.49999875  0.85850960  0.55178125  1
  H  H81  1  0.50000112  0.85340545  0.67129601  1
  H  H82  1  0.50000212  0.85184351  0.79343152  1
  H  H83  1  0.50000180  0.85136522  0.91601640  1
  H  H84  1  0.50000099  0.13568672  0.57307309  1
  H  H85  1  0.49999999  0.15095903  0.67141613  1
  H  H86  1  0.49999945  0.15275220  0.78787517  1
  H  H87  1  0.49999887  0.15213291  0.90978639  1
  H  H88  1  0.49999864  0.79939148  0.49698201  1
  H  H89  1  0.50000088  0.17715439  0.49878131  1
  H  H90  1  0.50000033  0.19931102  0.01723913  1
  H  H91  1  0.49999953  0.23379067  0.09709871  1
  H  H92  1  0.49999898  0.23001420  0.21897071  1
  H  H93  1  0.49999923  0.22786378  0.34546661  1
  H  H94  1  0.50000017  0.23238603  0.47299233  1
  H  H95  1  0.50000074  0.42803313  0.10241431  1
  H  H96  1  0.50000079  0.42589402  0.22550239  1
  H  H97  1  0.50000030  0.42386888  0.34700473  1
  H  H98  1  0.49999516  0.42140909  0.45982903  1
  H  H99  1  0.49999865  0.46453660  0.01872030  1
  H  H100  1  0.50000709  0.46615526  0.49124747  1
  H  H101  1  0.50000128  0.55371039  0.49557883  1
  H  H102  1  0.49999848  0.53689395  0.02158623  1
  H  H103  1  0.50000048  0.63090743  0.02321077  1
  H  H104  1  0.49999891  0.62627528  0.49579335  1
  H  H105  1  0.49999915  0.72083379  0.49671988  1
  H  H106  1  0.49999955  0.70607006  0.02458864  1
  H  H107  1  0.49999944  0.80205321  0.02451086  1
