# generated using pymatgen
data_H13C36
_symmetry_space_group_name_H-M   'P 1'
_cell_length_a   10.00000000
_cell_length_b   25.62946000
_cell_length_c   19.92102608
_cell_angle_alpha   90.00000000
_cell_angle_beta   90.00000000
_cell_angle_gamma   90.00000000
_symmetry_Int_Tables_number   1
_chemical_formula_structural   H13C36
_chemical_formula_sum   'H26 C72'
_cell_volume   5105.65140978
_cell_formula_units_Z   2
loop_
 _symmetry_equiv_pos_site_id
 _symmetry_equiv_pos_as_xyz
  1  'x, y, z'
loop_
 _atom_site_type_symbol
 _atom_site_label
 _atom_site_symmetry_multiplicity
 _atom_site_fract_x
 _atom_site_fract_y
 _atom_site_fract_z
 _atom_site_occupancy
  C  C0  1  0.49999976  0.23382594  0.53252756  1
  C  C1  1  0.49999933  0.23661105  0.65354755  1
  C  C2  1  0.49999928  0.23471507  0.77453830  1
  C  C3  1  0.49999961  0.22699845  0.89430892  1
  C  C4  1  0.49999939  0.26274466  0.59123798  1
  C  C5  1  0.49999893  0.26308510  0.71504156  1
  C  C6  1  0.49999910  0.25937057  0.83708096  1
  C  C7  1  0.49999965  0.25038753  0.95625186  1
  C  C8  1  0.49999951  0.32016689  0.59442559  1
  C  C9  1  0.49999893  0.31945074  0.71870431  1
  C  C10  1  0.49999876  0.31586283  0.84218272  1
  C  C11  1  0.49999905  0.30482497  0.96146130  1
  C  C12  1  0.49999988  0.34884054  0.53574812  1
  C  C13  1  0.49999945  0.34740268  0.65746292  1
  C  C14  1  0.49999898  0.34578585  0.78163742  1
  C  C15  1  0.49999889  0.34070521  0.90680695  1
  C  C16  1  0.49999993  0.40393780  0.03707228  1
  C  C17  1  0.49999969  0.40122141  0.16185221  1
  C  C18  1  0.49999985  0.40263911  0.28589451  1
  C  C19  1  0.50000036  0.40423085  0.40964236  1
  C  C20  1  0.50000041  0.40340787  0.53468459  1
  C  C21  1  0.50000010  0.40309262  0.65905542  1
  C  C22  1  0.49999948  0.40203072  0.78446070  1
  C  C23  1  0.49999934  0.39874581  0.91029102  1
  C  C24  1  0.49999989  0.42820211  0.10051106  1
  C  C25  1  0.49999986  0.42850474  0.22340986  1
  C  C26  1  0.50000011  0.43001244  0.34679697  1
  C  C27  1  0.50000039  0.43072705  0.47053467  1
  C  C28  1  0.50000057  0.43087544  0.59684831  1
  C  C29  1  0.49999999  0.43028302  0.72255886  1
  C  C30  1  0.49999958  0.42858349  0.84906571  1
  C  C31  1  0.49999974  0.42789913  0.97365670  1
  C  C32  1  0.50000019  0.48389996  0.10040746  1
  C  C33  1  0.50000016  0.48574362  0.22305188  1
  C  C34  1  0.50000004  0.48669070  0.34641719  1
  C  C35  1  0.50000009  0.48715997  0.47040674  1
  C  C36  1  0.50000028  0.48671563  0.59714734  1
  C  C37  1  0.50000004  0.48650829  0.72290336  1
  C  C38  1  0.49999994  0.48643182  0.84924778  1
  C  C39  1  0.49999997  0.48538014  0.97377970  1
  C  C40  1  0.50000027  0.50847830  0.03742360  1
  C  C41  1  0.50000043  0.51186947  0.16091461  1
  C  C42  1  0.50000014  0.51291473  0.28474084  1
  C  C43  1  0.49999995  0.51316171  0.40904373  1
  C  C44  1  0.49999977  0.51431893  0.53502807  1
  C  C45  1  0.49999982  0.51416893  0.65977420  1
  C  C46  1  0.49999997  0.51420996  0.78522074  1
  C  C47  1  0.50000008  0.51536345  0.91077199  1
  C  C48  1  0.49999875  0.56870626  0.53680650  1
  C  C49  1  0.49999902  0.56990543  0.65903798  1
  C  C50  1  0.49999995  0.57070593  0.78330030  1
  C  C51  1  0.50000030  0.57313160  0.90807314  1
  C  C52  1  0.49999852  0.59712679  0.59606071  1
  C  C53  1  0.49999930  0.59799076  0.72062219  1
  C  C54  1  0.50000043  0.59999646  0.84455126  1
  C  C55  1  0.50000000  0.60733932  0.96411609  1
  C  C56  1  0.49999884  0.65392572  0.59355326  1
  C  C57  1  0.49999963  0.65425439  0.71811976  1
  C  C58  1  0.50000073  0.65658706  0.84146935  1
  C  C59  1  0.50000049  0.66102296  0.96121913  1
  C  C60  1  0.49999939  0.68211447  0.53279131  1
  C  C61  1  0.49999963  0.68162081  0.65508312  1
  C  C62  1  0.50000053  0.68286799  0.77827856  1
  C  C63  1  0.50000093  0.68764621  0.90075022  1
  C  C64  1  0.50000078  0.73680165  0.53172095  1
  C  C65  1  0.50000099  0.73781710  0.65365365  1
  C  C66  1  0.50000126  0.73952920  0.77648841  1
  C  C67  1  0.50000100  0.74493870  0.89979535  1
  C  C68  1  0.50000159  0.76459619  0.59133985  1
  C  C69  1  0.50000185  0.76533857  0.71442270  1
  C  C70  1  0.50000135  0.76877271  0.83589600  1
  C  C71  1  0.50000049  0.77535620  0.95725275  1
  H  H72  1  0.49999966  0.19113774  0.53583525  1
  H  H73  1  0.49999942  0.19382903  0.65420363  1
  H  H74  1  0.50000020  0.19198420  0.77247557  1
  H  H75  1  0.49999998  0.18458360  0.88765728  1
  H  H76  1  0.50000280  0.80738642  0.59152123  1
  H  H77  1  0.50000283  0.80810758  0.71373009  1
  H  H78  1  0.50000147  0.81146997  0.83263418  1
  H  H79  1  0.50000027  0.81796885  0.95271390  1
  H  H80  1  0.50000038  0.25079442  0.48218432  1
  H  H81  1  0.50000000  0.22719009  0.00246879  1
  H  H82  1  0.49999879  0.31607272  0.01331141  1
  H  H83  1  0.49999970  0.32765569  0.48840299  1
  H  H84  1  0.50000030  0.36247195  0.04176555  1
  H  H85  1  0.49999959  0.35837216  0.16235763  1
  H  H86  1  0.49999983  0.35982884  0.28675125  1
  H  H87  1  0.50000047  0.36159848  0.40804884  1
  H  H88  1  0.50000064  0.54972049  0.04364580  1
  H  H89  1  0.50000061  0.55470882  0.15990778  1
  H  H90  1  0.50000001  0.55574687  0.28396486  1
  H  H91  1  0.49999978  0.55582789  0.40679831  1
  H  H92  1  0.49999836  0.58986733  0.48945044  1
  H  H93  1  0.49999930  0.59492030  0.01534514  1
  H  H94  1  0.50000027  0.68240169  0.00871643  1
  H  H95  1  0.49999907  0.66179258  0.48453312  1
  H  H96  1  0.50000122  0.75737122  0.48349850  1
  H  H97  1  0.50000034  0.75933315  0.00809670  1
