# generated using pymatgen
data_H15C44
_symmetry_space_group_name_H-M   'P 1'
_cell_length_a   10.00000000
_cell_length_b   29.89204000
_cell_length_c   19.91776904
_cell_angle_alpha   90.00000000
_cell_angle_beta   90.00000000
_cell_angle_gamma   90.00000000
_symmetry_Int_Tables_number   1
_chemical_formula_structural   H15C44
_chemical_formula_sum   'H30 C88'
_cell_volume   5953.82748907
_cell_formula_units_Z   2
loop_
 _symmetry_equiv_pos_site_id
 _symmetry_equiv_pos_as_xyz
  1  'x, y, z'
loop_
 _atom_site_type_symbol
 _atom_site_label
 _atom_site_symmetry_multiplicity
 _atom_site_fract_x
 _atom_site_fract_y
 _atom_site_fract_z
 _atom_site_occupancy
  C  C0  1  0.50000000  0.18973073  0.55286411  1
  C  C1  1  0.50000000  0.19668614  0.67387748  1
  C  C2  1  0.50000000  0.20069322  0.79520247  1
  C  C3  1  0.50000000  0.20247434  0.91828868  1
  C  C4  1  0.50000000  0.21655199  0.60954430  1
  C  C5  1  0.50000000  0.22229809  0.73270004  1
  C  C6  1  0.50000000  0.22484024  0.85546790  1
  C  C7  1  0.50000000  0.22685416  0.97741830  1
  C  C8  1  0.50000000  0.26575864  0.60748894  1
  C  C9  1  0.50000000  0.27086567  0.72989358  1
  C  C10  1  0.50000000  0.27298044  0.85299596  1
  C  C11  1  0.50000000  0.27370966  0.97529126  1
  C  C12  1  0.50000000  0.28823929  0.54661585  1
  C  C13  1  0.50000000  0.29290938  0.66630760  1
  C  C14  1  0.50000000  0.29591441  0.78957983  1
  C  C15  1  0.50000000  0.29723690  0.91396352  1
  C  C16  1  0.50000000  0.33428347  0.54288094  1
  C  C17  1  0.50000000  0.34146758  0.66237688  1
  C  C18  1  0.50000000  0.34411876  0.78611671  1
  C  C19  1  0.50000000  0.34581479  0.91031571  1
  C  C20  1  0.50000000  0.36408920  0.59845669  1
  C  C21  1  0.50000000  0.36707505  0.72313157  1
  C  C22  1  0.50000000  0.36870766  0.84714999  1
  C  C23  1  0.50000000  0.37048167  0.96913909  1
  C  C24  1  0.50000000  0.41757026  0.09556208  1
  C  C25  1  0.50000000  0.41653442  0.21950851  1
  C  C26  1  0.50000000  0.41603218  0.34358678  1
  C  C27  1  0.50000000  0.41871345  0.46799068  1
  C  C28  1  0.50000000  0.41363359  0.59502735  1
  C  C29  1  0.50000000  0.41552409  0.72046880  1
  C  C30  1  0.50000000  0.41648904  0.84564211  1
  C  C31  1  0.50000000  0.41700716  0.97017426  1
  C  C32  1  0.50000000  0.44023733  0.03459301  1
  C  C33  1  0.50000000  0.43977186  0.15837810  1
  C  C34  1  0.50000000  0.43905697  0.28178181  1
  C  C35  1  0.50000000  0.43951845  0.40459566  1
  C  C36  1  0.50000000  0.43889884  0.53157571  1
  C  C37  1  0.50000000  0.43894606  0.65636410  1
  C  C38  1  0.50000000  0.43992042  0.78237093  1
  C  C39  1  0.50000000  0.44040723  0.90784215  1
  C  C40  1  0.50000000  0.48853562  0.03463129  1
  C  C41  1  0.50000000  0.48836717  0.15849840  1
  C  C42  1  0.50000000  0.48813788  0.28188576  1
  C  C43  1  0.50000000  0.48723730  0.40460599  1
  C  C44  1  0.50000000  0.48820580  0.53153973  1
  C  C45  1  0.50000000  0.48860149  0.65635590  1
  C  C46  1  0.50000000  0.48816979  0.78231370  1
  C  C47  1  0.50000000  0.48818856  0.90775722  1
  C  C48  1  0.50000000  0.51094328  0.09583490  1
  C  C49  1  0.50000000  0.51111034  0.21999110  1
  C  C50  1  0.50000000  0.51093392  0.34382286  1
  C  C51  1  0.50000000  0.50814458  0.46786073  1
  C  C52  1  0.50000000  0.51364713  0.59492736  1
  C  C53  1  0.50000000  0.51237024  0.72032874  1
  C  C54  1  0.50000000  0.51187533  0.84531044  1
  C  C55  1  0.50000000  0.51177776  0.97005349  1
  C  C56  1  0.50000000  0.56301665  0.59813776  1
  C  C57  1  0.50000000  0.56080053  0.72266819  1
  C  C58  1  0.50000000  0.55970278  0.84640666  1
  C  C59  1  0.50000000  0.55824251  0.96853730  1
  C  C60  1  0.50000000  0.59244934  0.54212789  1
  C  C61  1  0.50000000  0.58604088  0.66173350  1
  C  C62  1  0.50000000  0.58429550  0.78532376  1
  C  C63  1  0.50000000  0.58278620  0.90935963  1
  C  C64  1  0.50000000  0.63832721  0.54512009  1
  C  C65  1  0.50000000  0.63461469  0.66505521  1
  C  C66  1  0.50000000  0.63257359  0.78823175  1
  C  C67  1  0.50000000  0.63125504  0.91228550  1
  C  C68  1  0.50000000  0.66121659  0.60581758  1
  C  C69  1  0.50000000  0.65755017  0.72813407  1
  C  C70  1  0.50000000  0.65587239  0.85148371  1
  C  C71  1  0.50000000  0.65474134  0.97363009  1
  C  C72  1  0.50000000  0.70978516  0.60695160  1
  C  C73  1  0.50000000  0.70594840  0.73039735  1
  C  C74  1  0.50000000  0.70385956  0.85400297  1
  C  C75  1  0.50000000  0.70106353  0.97591413  1
  C  C76  1  0.50000000  0.73563577  0.54782294  1
  C  C77  1  0.50000000  0.73176794  0.66987614  1
  C  C78  1  0.50000000  0.72853860  0.79266335  1
  C  C79  1  0.50000000  0.72670694  0.91703017  1
  C  C80  1  0.50000000  0.78252507  0.55000874  1
  C  C81  1  0.50000000  0.77996278  0.67218425  1
  C  C82  1  0.50000000  0.77702404  0.79506802  1
  C  C83  1  0.50000000  0.77594647  0.91958678  1
  C  C84  1  0.50000000  0.80458951  0.61121573  1
  C  C85  1  0.50000000  0.80151130  0.73483229  1
  C  C86  1  0.50000000  0.79896413  0.85731655  1
  C  C87  1  0.50000000  0.80036150  0.97868388  1
  H  H88  1  0.50000000  0.15323980  0.55832657  1
  H  H89  1  0.50000000  0.16011246  0.67827667  1
  H  H90  1  0.50000000  0.16402257  0.79679551  1
  H  H91  1  0.50000000  0.16579491  0.91879330  1
  H  H92  1  0.50000000  0.84123075  0.61351896  1
  H  H93  1  0.50000000  0.83817884  0.73703003  1
  H  H94  1  0.50000000  0.83565306  0.85782973  1
  H  H95  1  0.50000000  0.83698936  0.97624856  1
  H  H96  1  0.50000000  0.20285666  0.50168879  1
  H  H97  1  0.50000000  0.20975227  0.02610213  1
  H  H98  1  0.50000000  0.29164677  0.02310505  1
  H  H99  1  0.50000000  0.26969254  0.49927773  1
  H  H100  1  0.50000000  0.34438464  0.49134336  1
  H  H101  1  0.50000000  0.35264201  0.01665770  1
  H  H102  1  0.50000000  0.38100487  0.09721288  1
  H  H103  1  0.50000000  0.37980303  0.21910563  1
  H  H104  1  0.50000000  0.37928935  0.34364998  1
  H  H105  1  0.50000000  0.38325825  0.46254313  1
  H  H106  1  0.50000000  0.54751970  0.09793047  1
  H  H107  1  0.50000000  0.54782346  0.22050049  1
  H  H108  1  0.50000000  0.54767826  0.34417269  1
  H  H109  1  0.50000000  0.54352718  0.46176853  1
  H  H110  1  0.50000000  0.57619666  0.01601866  1
  H  H111  1  0.50000000  0.58193677  0.49082576  1
  H  H112  1  0.50000000  0.65637304  0.49743364  1
  H  H113  1  0.50000000  0.63677693  0.02140129  1
  H  H114  1  0.50000000  0.71757571  0.02494185  1
  H  H115  1  0.50000000  0.71934035  0.49877532  1
  H  H116  1  0.50000000  0.80153057  0.50292075  1
  H  H117  1  0.50000000  0.78520828  0.02861791  1
