# generated using pymatgen
data_HC4
_symmetry_space_group_name_H-M   'P 1'
_cell_length_a   10.00000000
_cell_length_b   29.89204000
_cell_length_c   19.78089529
_cell_angle_alpha   90.00000000
_cell_angle_beta   90.00000000
_cell_angle_gamma   90.00000000
_symmetry_Int_Tables_number   1
_chemical_formula_structural   HC4
_chemical_formula_sum   'H26 C104'
_cell_volume   5912.91313354
_cell_formula_units_Z   26
loop_
 _symmetry_equiv_pos_site_id
 _symmetry_equiv_pos_as_xyz
  1  'x, y, z'
loop_
 _atom_site_type_symbol
 _atom_site_label
 _atom_site_symmetry_multiplicity
 _atom_site_fract_x
 _atom_site_fract_y
 _atom_site_fract_z
 _atom_site_occupancy
  C  C0  1  0.50000000  0.20022844  0.01120634  1
  C  C1  1  0.50000000  0.19874743  0.13670449  1
  C  C2  1  0.50000000  0.19807143  0.26298504  1
  C  C3  1  0.50000000  0.19879814  0.38887341  1
  C  C4  1  0.50000000  0.20021153  0.51439234  1
  C  C5  1  0.50000000  0.20165080  0.63907742  1
  C  C6  1  0.50000000  0.20224610  0.76294405  1
  C  C7  1  0.50000000  0.20157881  0.88675363  1
  C  C8  1  0.50000000  0.22213988  0.07437343  1
  C  C9  1  0.50000000  0.22075566  0.20006407  1
  C  C10  1  0.50000000  0.22097684  0.32571199  1
  C  C11  1  0.50000000  0.22215758  0.45122482  1
  C  C12  1  0.50000000  0.22379648  0.57632324  1
  C  C13  1  0.50000000  0.22511008  0.70087264  1
  C  C14  1  0.50000000  0.22505264  0.82506902  1
  C  C15  1  0.50000000  0.22385833  0.94936043  1
  C  C16  1  0.50000000  0.27056653  0.07470164  1
  C  C17  1  0.50000000  0.26915215  0.20033547  1
  C  C18  1  0.50000000  0.26943472  0.32559183  1
  C  C19  1  0.50000000  0.27059512  0.45087730  1
  C  C20  1  0.50000000  0.27220376  0.57607331  1
  C  C21  1  0.50000000  0.27351477  0.70088469  1
  C  C22  1  0.50000000  0.27353329  0.82529373  1
  C  C23  1  0.50000000  0.27229832  0.94964466  1
  C  C24  1  0.50000000  0.29501939  0.01245669  1
  C  C25  1  0.50000000  0.29305286  0.13801663  1
  C  C26  1  0.50000000  0.29276390  0.26285646  1
  C  C27  1  0.50000000  0.29348571  0.38794176  1
  C  C28  1  0.50000000  0.29504156  0.51302382  1
  C  C29  1  0.50000000  0.29655613  0.63816469  1
  C  C30  1  0.50000000  0.29748659  0.76323143  1
  C  C31  1  0.50000000  0.29695400  0.88782355  1
  C  C32  1  0.50000000  0.34305295  0.01276239  1
  C  C33  1  0.50000000  0.34083697  0.13847635  1
  C  C34  1  0.50000000  0.34073559  0.26279310  1
  C  C35  1  0.50000000  0.34151135  0.38759312  1
  C  C36  1  0.50000000  0.34300059  0.51258049  1
  C  C37  1  0.50000000  0.34458572  0.63798308  1
  C  C38  1  0.50000000  0.34577391  0.76353628  1
  C  C39  1  0.50000000  0.34524204  0.88815547  1
  C  C40  1  0.50000000  0.36460652  0.07643797  1
  C  C41  1  0.50000000  0.36446566  0.20070990  1
  C  C42  1  0.50000000  0.36450932  0.32496415  1
  C  C43  1  0.50000000  0.36589583  0.44967505  1
  C  C44  1  0.50000000  0.36741437  0.57508394  1
  C  C45  1  0.50000000  0.36899101  0.70040528  1
  C  C46  1  0.50000000  0.36991508  0.82593303  1
  C  C47  1  0.50000000  0.36832882  0.95074957  1
  C  C48  1  0.50000000  0.41218577  0.07758772  1
  C  C49  1  0.50000000  0.41280044  0.20094675  1
  C  C50  1  0.50000000  0.41262264  0.32441001  1
  C  C51  1  0.50000000  0.41399610  0.44832412  1
  C  C52  1  0.50000000  0.41523165  0.57466210  1
  C  C53  1  0.50000000  0.41689015  0.70015919  1
  C  C54  1  0.50000000  0.41856057  0.82635045  1
  C  C55  1  0.50000000  0.41705408  0.95189630  1
  C  C56  1  0.50000000  0.43576670  0.01635898  1
  C  C57  1  0.50000000  0.43552478  0.13895777  1
  C  C58  1  0.50000000  0.43570254  0.26297386  1
  C  C59  1  0.50000000  0.43582775  0.38648515  1
  C  C60  1  0.50000000  0.43846978  0.51191445  1
  C  C61  1  0.50000000  0.43990004  0.63660446  1
  C  C62  1  0.50000000  0.44163654  0.76209486  1
  C  C63  1  0.50000000  0.44309871  0.88856822  1
  C  C64  1  0.50000000  0.48500834  0.51231552  1
  C  C65  1  0.50000000  0.48765872  0.63508879  1
  C  C66  1  0.50000000  0.48976228  0.75961904  1
  C  C67  1  0.50000000  0.49218178  0.88518643  1
  C  C68  1  0.50000000  0.51018584  0.57146655  1
  C  C69  1  0.50000000  0.51278365  0.69625800  1
  C  C70  1  0.50000000  0.51508985  0.82094658  1
  C  C71  1  0.50000000  0.52149809  0.94181363  1
  C  C72  1  0.50000000  0.55856256  0.56828652  1
  C  C73  1  0.50000000  0.56089792  0.69309989  1
  C  C74  1  0.50000000  0.56354909  0.81724301  1
  C  C75  1  0.50000000  0.56737771  0.93843149  1
  C  C76  1  0.50000000  0.58158493  0.50614582  1
  C  C77  1  0.50000000  0.58367128  0.62917113  1
  C  C78  1  0.50000000  0.58628957  0.75345707  1
  C  C79  1  0.50000000  0.59014925  0.87686776  1
  C  C80  1  0.50000000  0.62773705  0.50334359  1
  C  C81  1  0.50000000  0.63160585  0.62614754  1
  C  C82  1  0.50000000  0.63461067  0.75061477  1
  C  C83  1  0.50000000  0.63850898  0.87487709  1
  C  C84  1  0.50000000  0.65392251  0.56235059  1
  C  C85  1  0.50000000  0.65701665  0.68738724  1
  C  C86  1  0.50000000  0.66065492  0.81143153  1
  C  C87  1  0.50000000  0.66462320  0.93421015  1
  C  C88  1  0.50000000  0.70259446  0.55900385  1
  C  C89  1  0.50000000  0.70513733  0.68443566  1
  C  C90  1  0.50000000  0.70862547  0.80896469  1
  C  C91  1  0.50000000  0.71097264  0.93174844  1
  C  C92  1  0.50000000  0.72595402  0.49715044  1
  C  C93  1  0.50000000  0.72749001  0.62032678  1
  C  C94  1  0.50000000  0.73045683  0.74473338  1
  C  C95  1  0.50000000  0.73414458  0.87007312  1
  C  C96  1  0.50000000  0.77283155  0.49484724  1
  C  C97  1  0.50000000  0.77569489  0.61786358  1
  C  C98  1  0.50000000  0.77887829  0.74201195  1
  C  C99  1  0.50000000  0.78338203  0.86742413  1
  C  C100  1  0.50000000  0.79757203  0.55414283  1
  C  C101  1  0.50000000  0.80016991  0.67861725  1
  C  C102  1  0.50000000  0.80357446  0.80239342  1
  C  C103  1  0.50000000  0.81025815  0.92444205  1
  H  H104  1  0.50000000  0.16354448  0.00968778  1
  H  H105  1  0.50000000  0.16203530  0.13558458  1
  H  H106  1  0.50000000  0.16135100  0.26317900  1
  H  H107  1  0.50000000  0.16207540  0.38987623  1
  H  H108  1  0.50000000  0.16353375  0.51581784  1
  H  H109  1  0.50000000  0.16496411  0.64015058  1
  H  H110  1  0.50000000  0.16556756  0.76282114  1
  H  H111  1  0.50000000  0.16489325  0.88566701  1
  H  H112  1  0.50000000  0.83422479  0.55271040  1
  H  H113  1  0.50000000  0.83683617  0.67654197  1
  H  H114  1  0.50000000  0.84022139  0.79921823  1
  H  H115  1  0.50000000  0.84671439  0.91868193  1
  H  H116  1  0.50000000  0.47102954  0.02525873  1
  H  H117  1  0.50000000  0.47220747  0.13855173  1
  H  H118  1  0.50000000  0.47238495  0.26317989  1
  H  H119  1  0.50000000  0.47233518  0.38346670  1
  H  H120  1  0.50000000  0.50260421  0.46423966  1
  H  H121  1  0.50000000  0.51011272  0.99316620  1
  H  H122  1  0.50000000  0.58568137  0.98623092  1
  H  H123  1  0.50000000  0.56330029  0.45833163  1
  H  H124  1  0.50000000  0.64384693  0.45379887  1
  H  H125  1  0.50000000  0.64865552  0.98388161  1
  H  H126  1  0.50000000  0.72955900  0.97939656  1
  H  H127  1  0.50000000  0.70757343  0.44939219  1
  H  H128  1  0.50000000  0.78978452  0.44570679  1
  H  H129  1  0.50000000  0.79715640  0.97602556  1
