# generated using pymatgen
data_H3C10
_symmetry_space_group_name_H-M   'P 1'
_cell_length_a   10.00000000
_cell_length_b   25.62946000
_cell_length_c   19.84590047
_cell_angle_alpha   90.00000000
_cell_angle_beta   90.00000000
_cell_angle_gamma   90.00000000
_symmetry_Int_Tables_number   1
_chemical_formula_structural   H3C10
_chemical_formula_sum   'H24 C80'
_cell_volume   5086.39712323
_cell_formula_units_Z   8
loop_
 _symmetry_equiv_pos_site_id
 _symmetry_equiv_pos_as_xyz
  1  'x, y, z'
loop_
 _atom_site_type_symbol
 _atom_site_label
 _atom_site_symmetry_multiplicity
 _atom_site_fract_x
 _atom_site_fract_y
 _atom_site_fract_z
 _atom_site_occupancy
  C  C0  1  0.50000000  0.21879952  0.52620318  1
  C  C1  1  0.50000000  0.23546630  0.64133774  1
  C  C2  1  0.50000000  0.23714271  0.76268629  1
  C  C3  1  0.50000000  0.23670219  0.88539820  1
  C  C4  1  0.50000000  0.25767416  0.57576191  1
  C  C5  1  0.50000000  0.26382431  0.70086675  1
  C  C6  1  0.50000000  0.26421639  0.82322232  1
  C  C7  1  0.50000000  0.26341930  0.94491508  1
  C  C8  1  0.50000000  0.31903177  0.07201113  1
  C  C9  1  0.50000000  0.31684007  0.19730559  1
  C  C10  1  0.50000000  0.31749037  0.32254751  1
  C  C11  1  0.50000000  0.31889778  0.44672372  1
  C  C12  1  0.50000000  0.31559901  0.57263003  1
  C  C13  1  0.50000000  0.31985811  0.69884728  1
  C  C14  1  0.50000000  0.32038333  0.82291804  1
  C  C15  1  0.50000000  0.31894173  0.94676457  1
  C  C16  1  0.50000000  0.34595849  0.01048046  1
  C  C17  1  0.50000000  0.34403381  0.13553579  1
  C  C18  1  0.50000000  0.34335088  0.25969523  1
  C  C19  1  0.50000000  0.34484348  0.38410948  1
  C  C20  1  0.50000000  0.34397584  0.50951465  1
  C  C21  1  0.50000000  0.34497448  0.63428828  1
  C  C22  1  0.50000000  0.34812552  0.76036424  1
  C  C23  1  0.50000000  0.34783327  0.88525791  1
  C  C24  1  0.50000000  0.40219462  0.00998363  1
  C  C25  1  0.50000000  0.40012092  0.13572963  1
  C  C26  1  0.50000000  0.39989167  0.25968902  1
  C  C27  1  0.50000000  0.40083843  0.38420200  1
  C  C28  1  0.50000000  0.40049858  0.50968656  1
  C  C29  1  0.50000000  0.40157705  0.63462616  1
  C  C30  1  0.50000000  0.40434204  0.76047083  1
  C  C31  1  0.50000000  0.40426290  0.88523184  1
  C  C32  1  0.50000000  0.42747749  0.07364275  1
  C  C33  1  0.50000000  0.42761642  0.19787759  1
  C  C34  1  0.50000000  0.42762926  0.32172545  1
  C  C35  1  0.50000000  0.42791916  0.44682289  1
  C  C36  1  0.50000000  0.42867595  0.57193757  1
  C  C37  1  0.50000000  0.43057519  0.69699539  1
  C  C38  1  0.50000000  0.43259405  0.82287958  1
  C  C39  1  0.50000000  0.43131881  0.94774156  1
  C  C40  1  0.50000000  0.48311958  0.07457475  1
  C  C41  1  0.50000000  0.48411987  0.19810197  1
  C  C42  1  0.50000000  0.48376835  0.32149961  1
  C  C43  1  0.50000000  0.48398979  0.44564448  1
  C  C44  1  0.50000000  0.48469700  0.57158945  1
  C  C45  1  0.50000000  0.48679598  0.69678463  1
  C  C46  1  0.50000000  0.48936696  0.82308008  1
  C  C47  1  0.50000000  0.48818702  0.94855019  1
  C  C48  1  0.50000000  0.51022014  0.01301019  1
  C  C49  1  0.50000000  0.51038666  0.13588083  1
  C  C50  1  0.50000000  0.51079398  0.26008352  1
  C  C51  1  0.50000000  0.50997104  0.38408580  1
  C  C52  1  0.50000000  0.51196499  0.50924228  1
  C  C53  1  0.50000000  0.51360472  0.63328831  1
  C  C54  1  0.50000000  0.51588416  0.75848596  1
  C  C55  1  0.50000000  0.51811093  0.88498143  1
  C  C56  1  0.50000000  0.56638200  0.50949917  1
  C  C57  1  0.50000000  0.56939022  0.63146000  1
  C  C58  1  0.50000000  0.57208930  0.75576278  1
  C  C59  1  0.50000000  0.57552538  0.88107595  1
  C  C60  1  0.50000000  0.59584219  0.56793508  1
  C  C61  1  0.50000000  0.59847463  0.69244879  1
  C  C62  1  0.50000000  0.60183154  0.81687229  1
  C  C63  1  0.50000000  0.60982909  0.93713687  1
  C  C64  1  0.50000000  0.65258552  0.56417492  1
  C  C65  1  0.50000000  0.65465031  0.68904427  1
  C  C66  1  0.50000000  0.65837197  0.81305811  1
  C  C67  1  0.50000000  0.66356815  0.93358614  1
  C  C68  1  0.50000000  0.67977834  0.50251856  1
  C  C69  1  0.50000000  0.68117941  0.62523784  1
  C  C70  1  0.50000000  0.68391971  0.74901441  1
  C  C71  1  0.50000000  0.68981639  0.87234460  1
  C  C72  1  0.50000000  0.73441647  0.50012238  1
  C  C73  1  0.50000000  0.73735320  0.62257968  1
  C  C74  1  0.50000000  0.74055290  0.74607442  1
  C  C75  1  0.50000000  0.74716973  0.87006461  1
  C  C76  1  0.50000000  0.76311939  0.55927223  1
  C  C77  1  0.50000000  0.76560622  0.68311864  1
  C  C78  1  0.50000000  0.77027998  0.80535862  1
  C  C79  1  0.50000000  0.77845059  0.92699945  1
  H  H80  1  0.50000000  0.17837743  0.54432636  1
  H  H81  1  0.50000000  0.19279810  0.64530396  1
  H  H82  1  0.50000000  0.19436785  0.76296282  1
  H  H83  1  0.50000000  0.19394929  0.88465699  1
  H  H84  1  0.50000000  0.80587612  0.55811628  1
  H  H85  1  0.50000000  0.80836817  0.68130788  1
  H  H86  1  0.50000000  0.81296468  0.80150346  1
  H  H87  1  0.50000000  0.82100600  0.92148117  1
  H  H88  1  0.50000000  0.22184633  0.47170003  1
  H  H89  1  0.50000000  0.24132383  0.99191897  1
  H  H90  1  0.50000000  0.27641063  0.07228280  1
  H  H91  1  0.50000000  0.27401732  0.19702584  1
  H  H92  1  0.50000000  0.27468588  0.32349506  1
  H  H93  1  0.50000000  0.27693918  0.44420286  1
  H  H94  1  0.50000000  0.55144066  0.02151957  1
  H  H95  1  0.50000000  0.55318637  0.13547439  1
  H  H96  1  0.50000000  0.55359300  0.26030621  1
  H  H97  1  0.50000000  0.55257898  0.38196497  1
  H  H98  1  0.50000000  0.58660194  0.46139532  1
  H  H99  1  0.50000000  0.59642244  0.98823143  1
  H  H100  1  0.50000000  0.68521677  0.98106504  1
  H  H101  1  0.50000000  0.65858119  0.45473765  1
  H  H102  1  0.50000000  0.75417957  0.45115655  1
  H  H103  1  0.50000000  0.76308582  0.97838508  1
