# generated using pymatgen
data_HC4
_symmetry_space_group_name_H-M   'P 1'
_cell_length_a   10.00000000
_cell_length_b   29.89204000
_cell_length_c   19.81370436
_cell_angle_alpha   90.00000000
_cell_angle_beta   90.00000000
_cell_angle_gamma   90.00000000
_symmetry_Int_Tables_number   1
_chemical_formula_structural   HC4
_chemical_formula_sum   'H26 C104'
_cell_volume   5922.72043414
_cell_formula_units_Z   26
loop_
 _symmetry_equiv_pos_site_id
 _symmetry_equiv_pos_as_xyz
  1  'x, y, z'
loop_
 _atom_site_type_symbol
 _atom_site_label
 _atom_site_symmetry_multiplicity
 _atom_site_fract_x
 _atom_site_fract_y
 _atom_site_fract_z
 _atom_site_occupancy
  C  C0  1  0.50000000  0.18779222  0.51717081  1
  C  C1  1  0.50000000  0.20128675  0.63262267  1
  C  C2  1  0.50000000  0.20189621  0.75443975  1
  C  C3  1  0.50000000  0.20115185  0.87796518  1
  C  C4  1  0.50000000  0.22085459  0.56730431  1
  C  C5  1  0.50000000  0.22511545  0.69267732  1
  C  C6  1  0.50000000  0.22476846  0.81555637  1
  C  C7  1  0.50000000  0.22390075  0.93796794  1
  C  C8  1  0.50000000  0.27250998  0.06595513  1
  C  C9  1  0.50000000  0.27191427  0.19086757  1
  C  C10  1  0.50000000  0.27272658  0.31635689  1
  C  C11  1  0.50000000  0.27421301  0.44023878  1
  C  C12  1  0.50000000  0.27058039  0.56524600  1
  C  C13  1  0.50000000  0.27318454  0.69112607  1
  C  C14  1  0.50000000  0.27289233  0.81558862  1
  C  C15  1  0.50000000  0.27149224  0.94026954  1
  C  C16  1  0.50000000  0.29506046  0.00400656  1
  C  C17  1  0.50000000  0.29498113  0.12878934  1
  C  C18  1  0.50000000  0.29467529  0.25334554  1
  C  C19  1  0.50000000  0.29648230  0.37783014  1
  C  C20  1  0.50000000  0.29556915  0.50309594  1
  C  C21  1  0.50000000  0.29551384  0.62714068  1
  C  C22  1  0.50000000  0.29691649  0.75289693  1
  C  C23  1  0.50000000  0.29608493  0.87834905  1
  C  C24  1  0.50000000  0.34327485  0.00336263  1
  C  C25  1  0.50000000  0.34315721  0.12848832  1
  C  C26  1  0.50000000  0.34298356  0.25319460  1
  C  C27  1  0.50000000  0.34437281  0.37820469  1
  C  C28  1  0.50000000  0.34404742  0.50374524  1
  C  C29  1  0.50000000  0.34414162  0.62773954  1
  C  C30  1  0.50000000  0.34489926  0.75282054  1
  C  C31  1  0.50000000  0.34418096  0.87809719  1
  C  C32  1  0.50000000  0.36667841  0.06603005  1
  C  C33  1  0.50000000  0.36658730  0.19101183  1
  C  C34  1  0.50000000  0.36691944  0.31524866  1
  C  C35  1  0.50000000  0.36768323  0.44108416  1
  C  C36  1  0.50000000  0.36841141  0.56561730  1
  C  C37  1  0.50000000  0.36852425  0.69003492  1
  C  C38  1  0.50000000  0.36823516  0.81563392  1
  C  C39  1  0.50000000  0.36741112  0.94099764  1
  C  C40  1  0.50000000  0.41463583  0.06611930  1
  C  C41  1  0.50000000  0.41444729  0.19096638  1
  C  C42  1  0.50000000  0.41447732  0.31500360  1
  C  C43  1  0.50000000  0.41566660  0.44105675  1
  C  C44  1  0.50000000  0.41682107  0.56567529  1
  C  C45  1  0.50000000  0.41699439  0.69000079  1
  C  C46  1  0.50000000  0.41628771  0.81556254  1
  C  C47  1  0.50000000  0.41530377  0.94105653  1
  C  C48  1  0.50000000  0.43859112  0.00379898  1
  C  C49  1  0.50000000  0.43790964  0.12857484  1
  C  C50  1  0.50000000  0.43820831  0.25291693  1
  C  C51  1  0.50000000  0.43763194  0.37743002  1
  C  C52  1  0.50000000  0.44041986  0.50341022  1
  C  C53  1  0.50000000  0.44144785  0.62789952  1
  C  C54  1  0.50000000  0.44050235  0.75301529  1
  C  C55  1  0.50000000  0.43940891  0.87835219  1
  C  C56  1  0.50000000  0.48660178  0.00490691  1
  C  C57  1  0.50000000  0.48600866  0.12900684  1
  C  C58  1  0.50000000  0.48649058  0.25273020  1
  C  C59  1  0.50000000  0.48518720  0.37638164  1
  C  C60  1  0.50000000  0.48910520  0.50227727  1
  C  C61  1  0.50000000  0.49025054  0.62759440  1
  C  C62  1  0.50000000  0.48860351  0.75326643  1
  C  C63  1  0.50000000  0.48725804  0.87862437  1
  C  C64  1  0.50000000  0.50874932  0.06657450  1
  C  C65  1  0.50000000  0.50924385  0.19052146  1
  C  C66  1  0.50000000  0.50885400  0.31511860  1
  C  C67  1  0.50000000  0.50817894  0.43800067  1
  C  C68  1  0.50000000  0.51496905  0.56547694  1
  C  C69  1  0.50000000  0.51353783  0.69154556  1
  C  C70  1  0.50000000  0.51185826  0.81670577  1
  C  C71  1  0.50000000  0.51072498  0.94116786  1
  C  C72  1  0.50000000  0.56414955  0.56857539  1
  C  C73  1  0.50000000  0.56177966  0.69392662  1
  C  C74  1  0.50000000  0.55972394  0.81825741  1
  C  C75  1  0.50000000  0.55730482  0.94064488  1
  C  C76  1  0.50000000  0.59349560  0.51208669  1
  C  C77  1  0.50000000  0.58710192  0.63262184  1
  C  C78  1  0.50000000  0.58482410  0.75714147  1
  C  C79  1  0.50000000  0.58248072  0.88171453  1
  C  C80  1  0.50000000  0.63942144  0.51521579  1
  C  C81  1  0.50000000  0.63561468  0.63605839  1
  C  C82  1  0.50000000  0.63302946  0.76019801  1
  C  C83  1  0.50000000  0.63098970  0.88496123  1
  C  C84  1  0.50000000  0.66228549  0.57643583  1
  C  C85  1  0.50000000  0.65820602  0.69982878  1
  C  C86  1  0.50000000  0.65595780  0.82404499  1
  C  C87  1  0.50000000  0.65425478  0.94679813  1
  C  C88  1  0.50000000  0.71087765  0.57810690  1
  C  C89  1  0.50000000  0.70656072  0.70253856  1
  C  C90  1  0.50000000  0.70393846  0.82696252  1
  C  C91  1  0.50000000  0.70057076  0.94939248  1
  C  C92  1  0.50000000  0.73716246  0.51898886  1
  C  C93  1  0.50000000  0.73254825  0.64176481  1
  C  C94  1  0.50000000  0.72884944  0.76546355  1
  C  C95  1  0.50000000  0.72653757  0.89052304  1
  C  C96  1  0.50000000  0.78403669  0.52203364  1
  C  C97  1  0.50000000  0.78073767  0.64470618  1
  C  C98  1  0.50000000  0.77732062  0.76837075  1
  C  C99  1  0.50000000  0.77577833  0.89359499  1
  C  C100  1  0.50000000  0.80580020  0.58380582  1
  C  C101  1  0.50000000  0.80193875  0.70793556  1
  C  C102  1  0.50000000  0.79904409  0.83119275  1
  C  C103  1  0.50000000  0.79974750  0.95342488  1
  H  H104  1  0.50000000  0.15304830  0.53492658  1
  H  H105  1  0.50000000  0.16469972  0.63578202  1
  H  H106  1  0.50000000  0.16519376  0.75417482  1
  H  H107  1  0.50000000  0.16445627  0.87725400  1
  H  H108  1  0.50000000  0.84245919  0.58634966  1
  H  H109  1  0.50000000  0.83858165  0.71025390  1
  H  H110  1  0.50000000  0.83572986  0.83225031  1
  H  H111  1  0.50000000  0.83640335  0.95214525  1
  H  H112  1  0.50000000  0.19044235  0.46256499  1
  H  H113  1  0.50000000  0.20460807  0.98483489  1
  H  H114  1  0.50000000  0.23592918  0.06742545  1
  H  H115  1  0.50000000  0.23520064  0.19065224  1
  H  H116  1  0.50000000  0.23603821  0.31783506  1
  H  H117  1  0.50000000  0.23828074  0.43782148  1
  H  H118  1  0.50000000  0.54526401  0.06877254  1
  H  H119  1  0.50000000  0.54594144  0.19024663  1
  H  H120  1  0.50000000  0.54554103  0.31606778  1
  H  H121  1  0.50000000  0.54349791  0.42998309  1
  H  H122  1  0.50000000  0.57483748  0.98870756  1
  H  H123  1  0.50000000  0.58241223  0.46072035  1
  H  H124  1  0.50000000  0.65761377  0.46736153  1
  H  H125  1  0.50000000  0.63617562  0.99474226  1
  H  H126  1  0.50000000  0.71682261  0.99882305  1
  H  H127  1  0.50000000  0.72139116  0.46922129  1
  H  H128  1  0.50000000  0.80353570  0.47519784  1
  H  H129  1  0.50000000  0.78399995  1.00320300  1
