# generated using pymatgen
data_H11C36
_symmetry_space_group_name_H-M   'P 1'
_cell_length_a   10.00000000
_cell_length_b   21.36688000
_cell_length_c   19.84733530
_cell_angle_alpha   90.00000000
_cell_angle_beta   90.00000000
_cell_angle_gamma   90.00000000
_symmetry_Int_Tables_number   1
_chemical_formula_structural   H11C36
_chemical_formula_sum   'H22 C72'
_cell_volume   4240.75631742
_cell_formula_units_Z   2
loop_
 _symmetry_equiv_pos_site_id
 _symmetry_equiv_pos_as_xyz
  1  'x, y, z'
loop_
 _atom_site_type_symbol
 _atom_site_label
 _atom_site_symmetry_multiplicity
 _atom_site_fract_x
 _atom_site_fract_y
 _atom_site_fract_z
 _atom_site_occupancy
  C  C0  1  0.50000000  0.76907767  0.53507579  1
  C  C1  1  0.50000000  0.76671345  0.65679967  1
  C  C2  1  0.50000000  0.76898839  0.77882443  1
  C  C3  1  0.50000000  0.77749216  0.89982946  1
  C  C4  1  0.50000000  0.21295138  0.55610369  1
  C  C5  1  0.50000000  0.23318860  0.67110273  1
  C  C6  1  0.50000000  0.23521579  0.79251118  1
  C  C7  1  0.50000000  0.23472591  0.91527604  1
  C  C8  1  0.50000000  0.25975122  0.60547418  1
  C  C9  1  0.50000000  0.26718053  0.73061843  1
  C  C10  1  0.50000000  0.26769050  0.85306490  1
  C  C11  1  0.50000000  0.26676886  0.97478836  1
  C  C12  1  0.50000000  0.33365694  0.10178228  1
  C  C13  1  0.50000000  0.33129191  0.22689423  1
  C  C14  1  0.50000000  0.33186391  0.35208873  1
  C  C15  1  0.50000000  0.33335557  0.47623861  1
  C  C16  1  0.50000000  0.32926252  0.60215790  1
  C  C17  1  0.50000000  0.33439760  0.72846979  1
  C  C18  1  0.50000000  0.33505580  0.85270137  1
  C  C19  1  0.50000000  0.33337654  0.97657855  1
  C  C20  1  0.50000000  0.36590107  0.04022604  1
  C  C21  1  0.50000000  0.36388519  0.16511590  1
  C  C22  1  0.50000000  0.36306589  0.28931362  1
  C  C23  1  0.50000000  0.36462313  0.41367035  1
  C  C24  1  0.50000000  0.36337080  0.53903549  1
  C  C25  1  0.50000000  0.36448882  0.66381335  1
  C  C26  1  0.50000000  0.36824920  0.79003578  1
  C  C27  1  0.50000000  0.36796523  0.91506409  1
  C  C28  1  0.50000000  0.43340674  0.03969475  1
  C  C29  1  0.50000000  0.43119504  0.16521974  1
  C  C30  1  0.50000000  0.43088424  0.28924328  1
  C  C31  1  0.50000000  0.43185492  0.41378469  1
  C  C32  1  0.50000000  0.43122869  0.53924849  1
  C  C33  1  0.50000000  0.43238765  0.66409908  1
  C  C34  1  0.50000000  0.43567153  0.79008633  1
  C  C35  1  0.50000000  0.43564548  0.91496257  1
  C  C36  1  0.50000000  0.46401057  0.10313570  1
  C  C37  1  0.50000000  0.46414460  0.22739412  1
  C  C38  1  0.50000000  0.46408507  0.35133575  1
  C  C39  1  0.50000000  0.46431232  0.47644782  1
  C  C40  1  0.50000000  0.46500501  0.60138846  1
  C  C41  1  0.50000000  0.46696397  0.72651349  1
  C  C42  1  0.50000000  0.46950844  0.85261176  1
  C  C43  1  0.50000000  0.46820324  0.97741666  1
  C  C44  1  0.50000000  0.53084010  0.10402121  1
  C  C45  1  0.50000000  0.53194504  0.22756709  1
  C  C46  1  0.50000000  0.53145300  0.35106595  1
  C  C47  1  0.50000000  0.53167607  0.47526581  1
  C  C48  1  0.50000000  0.53228027  0.60095292  1
  C  C49  1  0.50000000  0.53437945  0.72622976  1
  C  C50  1  0.50000000  0.53759201  0.85283518  1
  C  C51  1  0.50000000  0.53638026  0.97814380  1
  C  C52  1  0.50000000  0.56324957  0.04241727  1
  C  C53  1  0.50000000  0.56349739  0.16536727  1
  C  C54  1  0.50000000  0.56387131  0.28959389  1
  C  C55  1  0.50000000  0.56286925  0.41362509  1
  C  C56  1  0.50000000  0.56530282  0.53878847  1
  C  C57  1  0.50000000  0.56661164  0.66270727  1
  C  C58  1  0.50000000  0.56883939  0.78802772  1
  C  C59  1  0.50000000  0.57220207  0.91482891  1
  C  C60  1  0.50000000  0.63093580  0.53909397  1
  C  C61  1  0.50000000  0.63353323  0.66090090  1
  C  C62  1  0.50000000  0.63605169  0.78535285  1
  C  C63  1  0.50000000  0.64147520  0.91128481  1
  C  C64  1  0.50000000  0.66595195  0.59753473  1
  C  C65  1  0.50000000  0.66752026  0.72216642  1
  C  C66  1  0.50000000  0.67157148  0.84647474  1
  C  C67  1  0.50000000  0.68366896  0.96668663  1
  C  C68  1  0.50000000  0.73495430  0.59436657  1
  C  C69  1  0.50000000  0.73519355  0.71877436  1
  C  C70  1  0.50000000  0.73928773  0.84174818  1
  C  C71  1  0.50000000  0.74894266  0.96188997  1
  H  H72  1  0.50000000  0.82033526  0.53732465  1
  H  H73  1  0.50000000  0.81803688  0.65703797  1
  H  H74  1  0.50000000  0.82025100  0.77693588  1
  H  H75  1  0.50000000  0.82847677  0.89411563  1
  H  H76  1  0.50000000  0.16454342  0.57455805  1
  H  H77  1  0.50000000  0.18203402  0.67516512  1
  H  H78  1  0.50000000  0.18389875  0.79286502  1
  H  H79  1  0.50000000  0.18344820  0.91448633  1
  H  H80  1  0.50000000  0.74796553  0.48489932  1
  H  H81  1  0.50000000  0.21649717  0.50158474  1
  H  H82  1  0.50000000  0.24028133  0.02180285  1
  H  H83  1  0.50000000  0.28251011  0.10231765  1
  H  H84  1  0.50000000  0.27992594  0.22666147  1
  H  H85  1  0.50000000  0.28049335  0.35290078  1
  H  H86  1  0.50000000  0.28298791  0.47359175  1
  H  H87  1  0.50000000  0.61283548  0.05013859  1
  H  H88  1  0.50000000  0.61483855  0.16495874  1
  H  H89  1  0.50000000  0.61521457  0.28991199  1
  H  H90  1  0.50000000  0.61399569  0.41173202  1
  H  H91  1  0.50000000  0.65578194  0.49120937  1
  H  H92  1  0.50000000  0.66852535  0.01823217  1
  H  H93  1  0.50000000  0.77626845  0.00864390  1
