# generated using pymatgen
data_HC3
_symmetry_space_group_name_H-M   'P 1'
_cell_length_a   10.00000000
_cell_length_b   29.89204000
_cell_length_c   19.88070245
_cell_angle_alpha   90.00000000
_cell_angle_beta   90.00000000
_cell_angle_gamma   90.00000000
_symmetry_Int_Tables_number   1
_chemical_formula_structural   HC3
_chemical_formula_sum   'H32 C96'
_cell_volume   5942.74752858
_cell_formula_units_Z   32
loop_
 _symmetry_equiv_pos_site_id
 _symmetry_equiv_pos_as_xyz
  1  'x, y, z'
loop_
 _atom_site_type_symbol
 _atom_site_label
 _atom_site_symmetry_multiplicity
 _atom_site_fract_x
 _atom_site_fract_y
 _atom_site_fract_z
 _atom_site_occupancy
  C  C0  1  0.50000000  0.84128425  0.51449962  1
  C  C1  1  0.50000000  0.83762378  0.63646652  1
  C  C2  1  0.50000000  0.83704524  0.75977763  1
  C  C3  1  0.50000000  0.83758206  0.88360533  1
  C  C4  1  0.50000000  0.14969016  0.52189243  1
  C  C5  1  0.50000000  0.16509888  0.63576850  1
  C  C6  1  0.50000000  0.16655708  0.75644858  1
  C  C7  1  0.50000000  0.16590343  0.87922163  1
  C  C8  1  0.50000000  0.18381807  0.57008391  1
  C  C9  1  0.50000000  0.18960863  0.69469359  1
  C  C10  1  0.50000000  0.18946013  0.81704919  1
  C  C11  1  0.50000000  0.18871898  0.93884143  1
  C  C12  1  0.50000000  0.23593221  0.06552024  1
  C  C13  1  0.50000000  0.23292530  0.18976037  1
  C  C14  1  0.50000000  0.23114813  0.31491423  1
  C  C15  1  0.50000000  0.23442325  0.44120348  1
  C  C16  1  0.50000000  0.23364805  0.56633674  1
  C  C17  1  0.50000000  0.23776305  0.69202613  1
  C  C18  1  0.50000000  0.23759380  0.81662435  1
  C  C19  1  0.50000000  0.23632235  0.94084718  1
  C  C20  1  0.50000000  0.25942672  0.00467874  1
  C  C21  1  0.50000000  0.25709302  0.12894940  1
  C  C22  1  0.50000000  0.25449713  0.25288208  1
  C  C23  1  0.50000000  0.25420948  0.37669790  1
  C  C24  1  0.50000000  0.25745902  0.50307438  1
  C  C25  1  0.50000000  0.25955707  0.62744351  1
  C  C26  1  0.50000000  0.26142738  0.75388165  1
  C  C27  1  0.50000000  0.26075683  0.87906928  1
  C  C28  1  0.50000000  0.30803632  0.00563765  1
  C  C29  1  0.50000000  0.30568305  0.12987819  1
  C  C30  1  0.50000000  0.30351580  0.25322793  1
  C  C31  1  0.50000000  0.30215363  0.37593087  1
  C  C32  1  0.50000000  0.30663917  0.50203994  1
  C  C33  1  0.50000000  0.30873259  0.62701458  1
  C  C34  1  0.50000000  0.30940049  0.75365205  1
  C  C35  1  0.50000000  0.30886537  0.87919948  1
  C  C36  1  0.50000000  0.32929986  0.06775831  1
  C  C37  1  0.50000000  0.32739785  0.19200103  1
  C  C38  1  0.50000000  0.32584320  0.31519169  1
  C  C39  1  0.50000000  0.32505053  0.43754573  1
  C  C40  1  0.50000000  0.33285637  0.56496228  1
  C  C41  1  0.50000000  0.33279463  0.69099603  1
  C  C42  1  0.50000000  0.33293578  0.81674424  1
  C  C43  1  0.50000000  0.33248041  0.94149397  1
  C  C44  1  0.50000000  0.38190816  0.56766551  1
  C  C45  1  0.50000000  0.38101740  0.69263589  1
  C  C46  1  0.50000000  0.38080478  0.81719467  1
  C  C47  1  0.50000000  0.37930681  0.93974702  1
  C  C48  1  0.50000000  0.41024772  0.51054192  1
  C  C49  1  0.50000000  0.40551015  0.63094624  1
  C  C50  1  0.50000000  0.40491148  0.75523061  1
  C  C51  1  0.50000000  0.40414074  0.88013529  1
  C  C52  1  0.50000000  0.45598900  0.51235300  1
  C  C53  1  0.50000000  0.45385990  0.63315711  1
  C  C54  1  0.50000000  0.45310495  0.75674745  1
  C  C55  1  0.50000000  0.45280693  0.88117314  1
  C  C56  1  0.50000000  0.47937915  0.57294611  1
  C  C57  1  0.50000000  0.47760190  0.69576353  1
  C  C58  1  0.50000000  0.47696971  0.81945842  1
  C  C59  1  0.50000000  0.47734941  0.94177395  1
  C  C60  1  0.50000000  0.52748662  0.57288500  1
  C  C61  1  0.50000000  0.52589848  0.69650964  1
  C  C62  1  0.50000000  0.52512006  0.82023987  1
  C  C63  1  0.50000000  0.52359071  0.94243249  1
  C  C64  1  0.50000000  0.55208395  0.51235203  1
  C  C65  1  0.50000000  0.55076696  0.63493248  1
  C  C66  1  0.50000000  0.54965559  0.75836386  1
  C  C67  1  0.50000000  0.54878820  0.88252334  1
  C  C68  1  0.50000000  0.59818038  0.51237493  1
  C  C69  1  0.50000000  0.59866883  0.63498143  1
  C  C70  1  0.50000000  0.59789187  0.75873939  1
  C  C71  1  0.50000000  0.59740609  0.88309865  1
  C  C72  1  0.50000000  0.62258461  0.57293411  1
  C  C73  1  0.50000000  0.62232747  0.69738193  1
  C  C74  1  0.50000000  0.62165556  0.82129434  1
  C  C75  1  0.50000000  0.62207441  0.94356406  1
  C  C76  1  0.50000000  0.67101853  0.57299128  1
  C  C77  1  0.50000000  0.67039218  0.69758045  1
  C  C78  1  0.50000000  0.66978530  0.82174879  1
  C  C79  1  0.50000000  0.66841728  0.94398878  1
  C  C80  1  0.50000000  0.69586304  0.51279946  1
  C  C81  1  0.50000000  0.69458620  0.63523351  1
  C  C82  1  0.50000000  0.69390265  0.75943781  1
  C  C83  1  0.50000000  0.69355906  0.88409369  1
  C  C84  1  0.50000000  0.74221873  0.51289890  1
  C  C85  1  0.50000000  0.74256052  0.63517412  1
  C  C86  1  0.50000000  0.74201493  0.75952157  1
  C  C87  1  0.50000000  0.74240975  0.88453560  1
  C  C88  1  0.50000000  0.76670384  0.57305841  1
  C  C89  1  0.50000000  0.76584991  0.69798662  1
  C  C90  1  0.50000000  0.76585840  0.82206252  1
  C  C91  1  0.50000000  0.76741970  0.94459042  1
  C  C92  1  0.50000000  0.81596917  0.57286967  1
  C  C93  1  0.50000000  0.81431556  0.69786631  1
  C  C94  1  0.50000000  0.81409499  0.82157371  1
  C  C95  1  0.50000000  0.81436388  0.94396050  1
  H  H96  1  0.50000000  0.87787501  0.51757927  1
  H  H97  1  0.50000000  0.87431577  0.63761225  1
  H  H98  1  0.50000000  0.87373038  0.75987995  1
  H  H99  1  0.50000000  0.87425268  0.88278591  1
  H  H100  1  0.50000000  0.11547310  0.54179720  1
  H  H101  1  0.50000000  0.12855656  0.64004764  1
  H  H102  1  0.50000000  0.12986469  0.75629104  1
  H  H103  1  0.50000000  0.12923469  0.87854268  1
  H  H104  1  0.50000000  0.82674722  0.46404421  1
  H  H105  1  0.50000000  0.15091322  0.46737013  1
  H  H106  1  0.50000000  0.16960055  0.98564003  1
  H  H107  1  0.50000000  0.19937681  0.06559236  1
  H  H108  1  0.50000000  0.19622796  0.18782981  1
  H  H109  1  0.50000000  0.19442933  0.31446856  1
  H  H110  1  0.50000000  0.19845815  0.44188143  1
  H  H111  1  0.50000000  0.36585251  0.07101998  1
  H  H112  1  0.50000000  0.36409268  0.19376327  1
  H  H113  1  0.50000000  0.36257943  0.31600321  1
  H  H114  1  0.50000000  0.36023223  0.42837675  1
  H  H115  1  0.50000000  0.39730817  0.98739260  1
  H  H116  1  0.50000000  0.39835290  0.45989271  1
  H  H117  1  0.50000000  0.47349720  0.46419540  1
  H  H118  1  0.50000000  0.46004352  0.99020487  1
  H  H119  1  0.50000000  0.54048453  0.99115815  1
  H  H120  1  0.50000000  0.53486618  0.46394503  1
  H  H121  1  0.50000000  0.61549927  0.46395755  1
  H  H122  1  0.50000000  0.60470257  0.99195266  1
  H  H123  1  0.50000000  0.68537945  0.99272326  1
  H  H124  1  0.50000000  0.67868964  0.46429248  1
  H  H125  1  0.50000000  0.75968847  0.46456914  1
  H  H126  1  0.50000000  0.75041341  0.99329640  1
  H  H127  1  0.50000000  0.83263657  0.99174865  1
