# generated using pymatgen
data_H5C16
_symmetry_space_group_name_H-M   'P 1'
_cell_length_a   10.00000000
_cell_length_b   21.36688000
_cell_length_c   19.82969781
_cell_angle_alpha   90.00000000
_cell_angle_beta   90.00000000
_cell_angle_gamma   90.00000000
_symmetry_Int_Tables_number   1
_chemical_formula_structural   H5C16
_chemical_formula_sum   'H20 C64'
_cell_volume   4236.98773585
_cell_formula_units_Z   4
loop_
 _symmetry_equiv_pos_site_id
 _symmetry_equiv_pos_as_xyz
  1  'x, y, z'
loop_
 _atom_site_type_symbol
 _atom_site_label
 _atom_site_symmetry_multiplicity
 _atom_site_fract_x
 _atom_site_fract_y
 _atom_site_fract_z
 _atom_site_occupancy
  C  C0  1  0.50000046  0.26372819  0.52256253  1
  C  C1  1  0.50000083  0.28309771  0.63792462  1
  C  C2  1  0.49999996  0.28438078  0.75984390  1
  C  C3  1  0.49999961  0.28405670  0.88350853  1
  C  C4  1  0.50000056  0.31010246  0.57232269  1
  C  C5  1  0.50000067  0.31656927  0.69789378  1
  C  C6  1  0.50000012  0.31658285  0.82082068  1
  C  C7  1  0.49999983  0.31625695  0.94314680  1
  C  C8  1  0.49999855  0.38478738  0.07030195  1
  C  C9  1  0.49999745  0.38369663  0.19480696  1
  C  C10  1  0.49999796  0.38419595  0.31958551  1
  C  C11  1  0.49999914  0.38485284  0.44326447  1
  C  C12  1  0.50000023  0.37957209  0.56928319  1
  C  C13  1  0.50000083  0.38378255  0.69589051  1
  C  C14  1  0.50000085  0.38395718  0.82053787  1
  C  C15  1  0.50000008  0.38292537  0.94489831  1
  C  C16  1  0.49999969  0.41618505  0.00835816  1
  C  C17  1  0.49999849  0.41608485  0.13306279  1
  C  C18  1  0.49999813  0.41556819  0.25701447  1
  C  C19  1  0.49999870  0.41684475  0.38111814  1
  C  C20  1  0.49999967  0.41419152  0.50638392  1
  C  C21  1  0.50000040  0.41425361  0.63121460  1
  C  C22  1  0.50000093  0.41714527  0.75776026  1
  C  C23  1  0.50000074  0.41694673  0.88300668  1
  C  C24  1  0.50000031  0.48379074  0.00761851  1
  C  C25  1  0.49999993  0.48346936  0.13290380  1
  C  C26  1  0.49999952  0.48340795  0.25703440  1
  C  C27  1  0.49999937  0.48413587  0.38156107  1
  C  C28  1  0.49999957  0.48226609  0.50688004  1
  C  C29  1  0.49999976  0.48206258  0.63156426  1
  C  C30  1  0.50000039  0.48434400  0.75780027  1
  C  C31  1  0.50000060  0.48453439  0.88289338  1
  C  C32  1  0.50000064  0.51587142  0.07049319  1
  C  C33  1  0.50000047  0.51658934  0.19502890  1
  C  C34  1  0.50000006  0.51653580  0.31915323  1
  C  C35  1  0.49999967  0.51621159  0.44444269  1
  C  C36  1  0.49999938  0.51546106  0.56916298  1
  C  C37  1  0.49999962  0.51564884  0.69425526  1
  C  C38  1  0.50000023  0.51793933  0.82048728  1
  C  C39  1  0.50000041  0.51773547  0.94517236  1
  C  C40  1  0.50000133  0.58316559  0.07093069  1
  C  C41  1  0.50000186  0.58443014  0.19504652  1
  C  C42  1  0.50000144  0.58391981  0.31899997  1
  C  C43  1  0.50000027  0.58381847  0.44369664  1
  C  C44  1  0.49999925  0.58305346  0.56904641  1
  C  C45  1  0.49999910  0.58285450  0.69429178  1
  C  C46  1  0.49999960  0.58574753  0.82083534  1
  C  C47  1  0.50000031  0.58581330  0.94566460  1
  C  C48  1  0.50000087  0.61515593  0.00878276  1
  C  C49  1  0.50000207  0.61580553  0.13247581  1
  C  C50  1  0.50000247  0.61630108  0.25725371  1
  C  C51  1  0.50000138  0.61521530  0.38176144  1
  C  C52  1  0.49999990  0.61707603  0.50715951  1
  C  C53  1  0.49999918  0.61603455  0.63151399  1
  C  C54  1  0.49999919  0.61621191  0.75615752  1
  C  C55  1  0.49999976  0.62042376  0.88276221  1
  C  C56  1  0.50000019  0.68374955  0.50889980  1
  C  C57  1  0.49999993  0.68341439  0.63122182  1
  C  C58  1  0.49999938  0.68342691  0.75415139  1
  C  C59  1  0.49999944  0.68989193  0.87971623  1
  C  C60  1  0.50000048  0.71594864  0.56854269  1
  C  C61  1  0.50000006  0.71561498  0.69219629  1
  C  C62  1  0.49999923  0.71689744  0.81411589  1
  C  C63  1  0.49999950  0.73627045  0.92948142  1
  H  H64  1  0.50000064  0.21524498  0.54074530  1
  H  H65  1  0.50000100  0.23190633  0.64132159  1
  H  H66  1  0.49999916  0.23302858  0.75965269  1
  H  H67  1  0.49999988  0.23276173  0.88326762  1
  H  H68  1  0.50000020  0.76724038  0.56880014  1
  H  H69  1  0.50000089  0.76696879  0.69239519  1
  H  H70  1  0.49999906  0.76808960  0.81070399  1
  H  H71  1  0.49999935  0.78475019  0.91127283  1
  H  H72  1  0.50000014  0.26786944  0.46805683  1
  H  H73  1  0.49999993  0.28970654  0.99024151  1
  H  H74  1  0.49999765  0.33364363  0.07207844  1
  H  H75  1  0.49999623  0.33234522  0.19423640  1
  H  H76  1  0.49999773  0.33279678  0.32028656  1
  H  H77  1  0.49999908  0.33453238  0.43946964  1
  H  H78  1  0.50000097  0.66547585  0.01258590  1
  H  H79  1  0.50000233  0.66720374  0.13181525  1
  H  H80  1  0.50000359  0.66765501  0.25784425  1
  H  H81  1  0.50000226  0.66635878  0.38001423  1
  H  H82  1  0.50000008  0.71028647  0.46180806  1
  H  H83  1  0.49999980  0.73212570  0.98399111  1
