# generated using pymatgen
data_HC4
_symmetry_space_group_name_H-M   'P 1'
_cell_length_a   10.00000000
_cell_length_b   25.62946000
_cell_length_c   19.81585542
_cell_angle_alpha   90.00000000
_cell_angle_beta   90.00000000
_cell_angle_gamma   90.00000000
_symmetry_Int_Tables_number   1
_chemical_formula_structural   HC4
_chemical_formula_sum   'H22 C88'
_cell_volume   5078.69673919
_cell_formula_units_Z   22
loop_
 _symmetry_equiv_pos_site_id
 _symmetry_equiv_pos_as_xyz
  1  'x, y, z'
loop_
 _atom_site_type_symbol
 _atom_site_label
 _atom_site_symmetry_multiplicity
 _atom_site_fract_x
 _atom_site_fract_y
 _atom_site_fract_z
 _atom_site_occupancy
  C  C0  1  0.49999972  0.23278990  0.50709413  1
  C  C1  1  0.49999950  0.23554451  0.62885215  1
  C  C2  1  0.49999956  0.23412433  0.75096151  1
  C  C3  1  0.50000004  0.22744795  0.87195023  1
  C  C4  1  0.49999965  0.26169085  0.56609371  1
  C  C5  1  0.49999979  0.26208896  0.69065799  1
  C  C6  1  0.50000002  0.25918756  0.81371210  1
  C  C7  1  0.50000009  0.25150579  0.93388710  1
  C  C8  1  0.49999991  0.31918255  0.56874333  1
  C  C9  1  0.50000033  0.31849180  0.69366938  1
  C  C10  1  0.50000035  0.31566803  0.81810792  1
  C  C11  1  0.50000007  0.30593318  0.93841838  1
  C  C12  1  0.49999983  0.34799851  0.50979633  1
  C  C13  1  0.50000041  0.34648923  0.63199640  1
  C  C14  1  0.50000067  0.34504150  0.75671003  1
  C  C15  1  0.50000037  0.34113301  0.88272215  1
  C  C16  1  0.49999991  0.40643132  0.01162188  1
  C  C17  1  0.49999957  0.40525044  0.13439298  1
  C  C18  1  0.49999981  0.40429490  0.25907590  1
  C  C19  1  0.50000004  0.40452449  0.38342079  1
  C  C20  1  0.50000030  0.40264223  0.50893298  1
  C  C21  1  0.50000078  0.40223383  0.63335830  1
  C  C22  1  0.50000083  0.40112387  0.75880469  1
  C  C23  1  0.50000039  0.39899461  0.88514969  1
  C  C24  1  0.49999972  0.43302538  0.07321576  1
  C  C25  1  0.49999939  0.43108527  0.19693099  1
  C  C26  1  0.49999973  0.43109351  0.32092324  1
  C  C27  1  0.50000006  0.43051166  0.44514210  1
  C  C28  1  0.50000057  0.43040814  0.57121153  1
  C  C29  1  0.50000071  0.42950144  0.69679472  1
  C  C30  1  0.50000055  0.42787166  0.82301148  1
  C  C31  1  0.50000009  0.42920222  0.94769968  1
  C  C32  1  0.49999979  0.48855495  0.07229462  1
  C  C33  1  0.49999938  0.48742317  0.19686840  1
  C  C34  1  0.49999957  0.48723507  0.32136265  1
  C  C35  1  0.49999984  0.48655789  0.44614026  1
  C  C36  1  0.50000004  0.48626184  0.57147994  1
  C  C37  1  0.50000010  0.48554035  0.69695270  1
  C  C38  1  0.50000027  0.48475030  0.82238009  1
  C  C39  1  0.50000006  0.48591317  0.94669101  1
  C  C40  1  0.49999995  0.51461307  0.00899174  1
  C  C41  1  0.49999976  0.51534071  0.13482731  1
  C  C42  1  0.49999965  0.51479811  0.25900393  1
  C  C43  1  0.49999975  0.51438119  0.38379206  1
  C  C44  1  0.49999971  0.51400619  0.50875464  1
  C  C45  1  0.49999965  0.51345194  0.63425153  1
  C  C46  1  0.49999992  0.51300749  0.75993086  1
  C  C47  1  0.50000015  0.51351577  0.88444223  1
  C  C48  1  0.49999999  0.57063004  0.00893807  1
  C  C49  1  0.50000005  0.57083993  0.13459744  1
  C  C50  1  0.50000011  0.57060820  0.25894482  1
  C  C51  1  0.49999989  0.57032672  0.38381945  1
  C  C52  1  0.49999949  0.56988157  0.50872315  1
  C  C53  1  0.49999931  0.56943230  0.63408084  1
  C  C54  1  0.49999971  0.56954011  0.75976708  1
  C  C55  1  0.50000008  0.57000753  0.88435529  1
  C  C56  1  0.50000010  0.59760067  0.07180993  1
  C  C57  1  0.50000044  0.59834729  0.19684598  1
  C  C58  1  0.50000023  0.59778156  0.32146684  1
  C  C59  1  0.49999982  0.59777287  0.44633455  1
  C  C60  1  0.49999947  0.59720637  0.57143367  1
  C  C61  1  0.49999960  0.59680837  0.69679304  1
  C  C62  1  0.49999998  0.59812690  0.82206712  1
  C  C63  1  0.50000005  0.59839605  0.94626106  1
  C  C64  1  0.50000030  0.65352062  0.07224284  1
  C  C65  1  0.50000052  0.65465571  0.19678591  1
  C  C66  1  0.50000021  0.65393185  0.32114586  1
  C  C67  1  0.50000011  0.65393231  0.44560815  1
  C  C68  1  0.50000009  0.65325166  0.57112610  1
  C  C69  1  0.50000004  0.65274565  0.69652801  1
  C  C70  1  0.49999991  0.65483087  0.82249976  1
  C  C71  1  0.50000000  0.65499996  0.94684107  1
  C  C72  1  0.50000020  0.67979894  0.00987750  1
  C  C73  1  0.50000051  0.68070369  0.13406922  1
  C  C74  1  0.50000021  0.68101723  0.25928883  1
  C  C75  1  0.50000021  0.68019386  0.38374806  1
  C  C76  1  0.50000035  0.68159363  0.50916571  1
  C  C77  1  0.50000034  0.68051981  0.63366932  1
  C  C78  1  0.50000002  0.68059201  0.75823213  1
  C  C79  1  0.49999976  0.68402027  0.88435482  1
  C  C80  1  0.50000065  0.73711874  0.51083761  1
  C  C81  1  0.50000040  0.73659251  0.63324775  1
  C  C82  1  0.49999982  0.73662049  0.75617430  1
  C  C83  1  0.49999951  0.74202642  0.88152565  1
  C  C84  1  0.50000053  0.76386368  0.57064494  1
  C  C85  1  0.49999994  0.76343702  0.69422171  1
  C  C86  1  0.49999942  0.76463833  0.81602965  1
  C  C87  1  0.49999966  0.78081823  0.93123988  1
  H  H88  1  0.49999975  0.19009848  0.51015598  1
  H  H89  1  0.49999929  0.19276248  0.62963832  1
  H  H90  1  0.49999930  0.19135592  0.74959699  1
  H  H91  1  0.49999990  0.18493186  0.86644036  1
  H  H92  1  0.50000049  0.80663947  0.57134905  1
  H  H93  1  0.49999989  0.80621770  0.69430216  1
  H  H94  1  0.49999915  0.80732451  0.81258246  1
  H  H95  1  0.49999971  0.82121390  0.91293317  1
  H  H96  1  0.50000001  0.24990264  0.45657498  1
  H  H97  1  0.50000002  0.22894594  0.98086083  1
  H  H98  1  0.49999973  0.31779594  0.99039804  1
  H  H99  1  0.49999938  0.32691953  0.46208869  1
  H  H100  1  0.49999998  0.36512893  0.01835786  1
  H  H101  1  0.49999995  0.36245319  0.13318039  1
  H  H102  1  0.50000040  0.36146658  0.25909430  1
  H  H103  1  0.50000033  0.36190118  0.38136575  1
  H  H104  1  0.50000024  0.72177629  0.01247235  1
  H  H105  1  0.50000040  0.72349799  0.13354779  1
  H  H106  1  0.49999985  0.72382969  0.25981292  1
  H  H107  1  0.50000027  0.72281796  0.38214122  1
  H  H108  1  0.50000066  0.75922051  0.46367585  1
  H  H109  1  0.49999991  0.77773064  0.98581680  1
