# generated using pymatgen
data_H9C20
_symmetry_space_group_name_H-M   'P 1'
_cell_length_a   10.00000000
_cell_length_b   17.10430000
_cell_length_c   19.77476141
_cell_angle_alpha   90.00000000
_cell_angle_beta   90.00000000
_cell_angle_gamma   90.00000000
_symmetry_Int_Tables_number   1
_chemical_formula_structural   H9C20
_chemical_formula_sum   'H18 C40'
_cell_volume   3382.33451581
_cell_formula_units_Z   2
loop_
 _symmetry_equiv_pos_site_id
 _symmetry_equiv_pos_as_xyz
  1  'x, y, z'
loop_
 _atom_site_type_symbol
 _atom_site_label
 _atom_site_symmetry_multiplicity
 _atom_site_fract_x
 _atom_site_fract_y
 _atom_site_fract_z
 _atom_site_occupancy
  C  C0  1  0.50000000  0.35287486  0.03049180  1
  C  C1  1  0.50000000  0.34627282  0.15692670  1
  C  C2  1  0.50000000  0.34567817  0.28305902  1
  C  C3  1  0.50000000  0.34937994  0.40899168  1
  C  C4  1  0.50000000  0.35396363  0.53358189  1
  C  C5  1  0.50000000  0.35651913  0.65824650  1
  C  C6  1  0.50000000  0.35916666  0.78345279  1
  C  C7  1  0.50000000  0.35856988  0.90696095  1
  C  C8  1  0.50000000  0.38772350  0.09488711  1
  C  C9  1  0.50000000  0.38500077  0.21995919  1
  C  C10  1  0.50000000  0.38627906  0.34512905  1
  C  C11  1  0.50000000  0.39187281  0.47020335  1
  C  C12  1  0.50000000  0.39519586  0.59521996  1
  C  C13  1  0.50000000  0.39705132  0.72031639  1
  C  C14  1  0.50000000  0.39985695  0.84550329  1
  C  C15  1  0.50000000  0.39681823  0.96964647  1
  C  C16  1  0.50000001  0.47269789  0.09650989  1
  C  C17  1  0.50000000  0.47051883  0.22029953  1
  C  C18  1  0.50000000  0.47154649  0.34418196  1
  C  C19  1  0.49999999  0.47732578  0.46851410  1
  C  C20  1  0.50000000  0.48029405  0.59413936  1
  C  C21  1  0.50000000  0.48182779  0.71983766  1
  C  C22  1  0.50000000  0.48520895  0.84630859  1
  C  C23  1  0.50000001  0.48254831  0.97131221  1
  C  C24  1  0.50000002  0.51583679  0.03561780  1
  C  C25  1  0.50000001  0.51133853  0.15878113  1
  C  C26  1  0.50000000  0.51062682  0.28220658  1
  C  C27  1  0.49999999  0.51361732  0.40563638  1
  C  C28  1  0.49999999  0.52071167  0.53134602  1
  C  C29  1  0.50000000  0.52215014  0.65636265  1
  C  C30  1  0.50000001  0.52361020  0.78144442  1
  C  C31  1  0.50000000  0.52712780  0.90856277  1
  C  C32  1  0.49999999  0.60447026  0.53234229  1
  C  C33  1  0.50000000  0.60647723  0.65553069  1
  C  C34  1  0.50000001  0.60784025  0.77929364  1
  C  C35  1  0.50000000  0.61412517  0.90554176  1
  C  C36  1  0.50000000  0.64569849  0.59177000  1
  C  C37  1  0.50000001  0.64727657  0.71643665  1
  C  C38  1  0.50000002  0.64890681  0.83977216  1
  C  C39  1  0.49999997  0.67002342  0.95665851  1
  H  H40  1  0.50000000  0.28885864  0.02642283  1
  H  H41  1  0.50000000  0.28209732  0.15623015  1
  H  H42  1  0.50000000  0.28149397  0.28358719  1
  H  H43  1  0.50000000  0.28527111  0.41163646  1
  H  H44  1  0.50000000  0.28979187  0.53480123  1
  H  H45  1  0.50000000  0.29235272  0.65876117  1
  H  H46  1  0.50000000  0.29502404  0.78479589  1
  H  H47  1  0.49999999  0.29442937  0.90582258  1
  H  H48  1  0.50000000  0.70985745  0.59154713  1
  H  H49  1  0.50000000  0.71143011  0.71621050  1
  H  H50  1  0.50000002  0.71295640  0.83735759  1
  H  H51  1  0.49999999  0.73151351  0.94091205  1
  H  H52  1  0.50000005  0.57855426  0.04205401  1
  H  H53  1  0.50000001  0.57550525  0.15990034  1
  H  H54  1  0.50000001  0.57475033  0.28168935  1
  H  H55  1  0.49999999  0.57741326  0.40154063  1
  H  H56  1  0.49999998  0.63705324  0.48474297  1
  H  H57  1  0.49999991  0.66156294  0.01100508  1
