# generated using pymatgen
data_HC4
_symmetry_space_group_name_H-M   'P 1'
_cell_length_a   10.00000000
_cell_length_b   29.89204000
_cell_length_c   19.82259229
_cell_angle_alpha   90.00000000
_cell_angle_beta   90.00000000
_cell_angle_gamma   90.00000000
_symmetry_Int_Tables_number   1
_chemical_formula_structural   HC4
_chemical_formula_sum   'H28 C112'
_cell_volume   5925.37721567
_cell_formula_units_Z   28
loop_
 _symmetry_equiv_pos_site_id
 _symmetry_equiv_pos_as_xyz
  1  'x, y, z'
loop_
 _atom_site_type_symbol
 _atom_site_label
 _atom_site_symmetry_multiplicity
 _atom_site_fract_x
 _atom_site_fract_y
 _atom_site_fract_z
 _atom_site_occupancy
  C  C0  1  0.50000000  0.84587537  0.52719213  1
  C  C1  1  0.50000000  0.83922453  0.64891587  1
  C  C2  1  0.50000000  0.83595061  0.77231778  1
  C  C3  1  0.50000000  0.83356930  0.89641160  1
  C  C4  1  0.50000000  0.15181119  0.51656514  1
  C  C5  1  0.50000000  0.16528332  0.63194693  1
  C  C6  1  0.50000000  0.16601898  0.75364520  1
  C  C7  1  0.50000000  0.16535965  0.87712292  1
  C  C8  1  0.50000000  0.18481313  0.56662812  1
  C  C9  1  0.50000000  0.18920080  0.69188056  1
  C  C10  1  0.50000000  0.18890980  0.81471190  1
  C  C11  1  0.50000000  0.18811889  0.93708027  1
  C  C12  1  0.50000000  0.23672055  0.06471268  1
  C  C13  1  0.50000000  0.23618620  0.18944942  1
  C  C14  1  0.50000000  0.23682774  0.31481086  1
  C  C15  1  0.50000000  0.23807592  0.43871589  1
  C  C16  1  0.50000000  0.23448655  0.56409285  1
  C  C17  1  0.50000000  0.23724141  0.69004491  1
  C  C18  1  0.50000000  0.23699523  0.81456700  1
  C  C19  1  0.50000000  0.23570837  0.93914184  1
  C  C20  1  0.50000000  0.25930241  0.00281664  1
  C  C21  1  0.50000000  0.25923971  0.12741958  1
  C  C22  1  0.50000000  0.25890041  0.25189255  1
  C  C23  1  0.50000000  0.26046680  0.37635676  1
  C  C24  1  0.50000000  0.25934386  0.50171403  1
  C  C25  1  0.50000000  0.25945689  0.62591802  1
  C  C26  1  0.50000000  0.26095602  0.75182775  1
  C  C27  1  0.50000000  0.26022856  0.87723779  1
  C  C28  1  0.50000000  0.30748526  0.00211305  1
  C  C29  1  0.50000000  0.30740839  0.12707983  1
  C  C30  1  0.50000000  0.30717964  0.25172566  1
  C  C31  1  0.50000000  0.30836169  0.37679409  1
  C  C32  1  0.50000000  0.30786623  0.50230055  1
  C  C33  1  0.50000000  0.30805321  0.62634480  1
  C  C34  1  0.50000000  0.30887560  0.75159012  1
  C  C35  1  0.50000000  0.30829609  0.87687952  1
  C  C36  1  0.50000000  0.33093535  0.06467117  1
  C  C37  1  0.50000000  0.33081438  0.18953907  1
  C  C38  1  0.50000000  0.33098577  0.31383284  1
  C  C39  1  0.50000000  0.33159460  0.43970338  1
  C  C40  1  0.50000000  0.33225255  0.56418578  1
  C  C41  1  0.50000000  0.33237148  0.68868120  1
  C  C42  1  0.50000000  0.33221686  0.81433132  1
  C  C43  1  0.50000000  0.33156794  0.93973162  1
  C  C44  1  0.50000000  0.37889363  0.06465384  1
  C  C45  1  0.50000000  0.37868128  0.18940395  1
  C  C46  1  0.50000000  0.37854031  0.31353268  1
  C  C47  1  0.50000000  0.37957744  0.43960987  1
  C  C48  1  0.50000000  0.38065528  0.56414397  1
  C  C49  1  0.50000000  0.38080313  0.68853707  1
  C  C50  1  0.50000000  0.38019706  0.81413673  1
  C  C51  1  0.50000000  0.37943499  0.93966733  1
  C  C52  1  0.50000000  0.40278017  0.00234431  1
  C  C53  1  0.50000000  0.40219843  0.12706234  1
  C  C54  1  0.50000000  0.40233429  0.25141528  1
  C  C55  1  0.50000000  0.40158592  0.37600264  1
  C  C56  1  0.50000000  0.40432341  0.50188722  1
  C  C57  1  0.50000000  0.40521657  0.62641716  1
  C  C58  1  0.50000000  0.40432269  0.75150562  1
  C  C59  1  0.50000000  0.40335792  0.87685971  1
  C  C60  1  0.50000000  0.45079386  0.00350871  1
  C  C61  1  0.50000000  0.45030952  0.12753609  1
  C  C62  1  0.50000000  0.45063480  0.25133039  1
  C  C63  1  0.50000000  0.44911866  0.37493850  1
  C  C64  1  0.50000000  0.45301484  0.50073863  1
  C  C65  1  0.50000000  0.45396148  0.62608525  1
  C  C66  1  0.50000000  0.45232842  0.75168914  1
  C  C67  1  0.50000000  0.45113109  0.87708878  1
  C  C68  1  0.50000000  0.47306720  0.06509789  1
  C  C69  1  0.50000000  0.47344182  0.18914167  1
  C  C70  1  0.50000000  0.47287208  0.31380693  1
  C  C71  1  0.50000000  0.47213008  0.43650965  1
  C  C72  1  0.50000000  0.47874449  0.56400911  1
  C  C73  1  0.50000000  0.47723005  0.68999707  1
  C  C74  1  0.50000000  0.47558326  0.81507478  1
  C  C75  1  0.50000000  0.47468577  0.93958911  1
  C  C76  1  0.50000000  0.52781600  0.56723752  1
  C  C77  1  0.50000000  0.52540676  0.69238320  1
  C  C78  1  0.50000000  0.52339267  0.81651697  1
  C  C79  1  0.50000000  0.52113876  0.93886524  1
  C  C80  1  0.50000000  0.55719314  0.51078142  1
  C  C81  1  0.50000000  0.55074814  0.63121578  1
  C  C82  1  0.50000000  0.54851225  0.75551539  1
  C  C83  1  0.50000000  0.54618974  0.87980907  1
  C  C84  1  0.50000000  0.60302369  0.51395921  1
  C  C85  1  0.50000000  0.59920609  0.63478468  1
  C  C86  1  0.50000000  0.59663949  0.75862886  1
  C  C87  1  0.50000000  0.59456050  0.88303255  1
  C  C88  1  0.50000000  0.62583133  0.57531212  1
  C  C89  1  0.50000000  0.62197415  0.69838258  1
  C  C90  1  0.50000000  0.61957427  0.82230795  1
  C  C91  1  0.50000000  0.61767233  0.94500353  1
  C  C92  1  0.50000000  0.67418601  0.57715779  1
  C  C93  1  0.50000000  0.67030179  0.70116901  1
  C  C94  1  0.50000000  0.66753264  0.82534472  1
  C  C95  1  0.50000000  0.66383263  0.94786141  1
  C  C96  1  0.50000000  0.70023816  0.51784395  1
  C  C97  1  0.50000000  0.69630933  0.64042505  1
  C  C98  1  0.50000000  0.69280250  0.76416332  1
  C  C99  1  0.50000000  0.68997450  0.88892249  1
  C  C100  1  0.50000000  0.74659662  0.52008787  1
  C  C101  1  0.50000000  0.74427813  0.64265525  1
  C  C102  1  0.50000000  0.74091204  0.76686604  1
  C  C103  1  0.50000000  0.73864308  0.89198648  1
  C  C104  1  0.50000000  0.76975784  0.58163926  1
  C  C105  1  0.50000000  0.76617100  0.70662944  1
  C  C106  1  0.50000000  0.76340318  0.83069798  1
  C  C107  1  0.50000000  0.76207500  0.95362993  1
  C  C108  1  0.50000000  0.81899826  0.58410162  1
  C  C109  1  0.50000000  0.81456716  0.70917574  1
  C  C110  1  0.50000000  0.81158312  0.83298168  1
  C  C111  1  0.50000000  0.80895966  0.95569389  1
  H  H112  1  0.50000000  0.88234761  0.53293160  1
  H  H113  1  0.50000000  0.87587040  0.65195201  1
  H  H114  1  0.50000000  0.87261528  0.77419784  1
  H  H115  1  0.50000000  0.87022421  0.89731216  1
  H  H116  1  0.50000000  0.11704324  0.53418096  1
  H  H117  1  0.50000000  0.12869428  0.63509407  1
  H  H118  1  0.50000000  0.12931560  0.75327226  1
  H  H119  1  0.50000000  0.12868330  0.87597336  1
  H  H120  1  0.50000000  0.83268119  0.47576502  1
  H  H121  1  0.50000000  0.15487828  0.46210347  1
  H  H122  1  0.50000000  0.16905354  0.98413550  1
  H  H123  1  0.50000000  0.20015182  0.06626658  1
  H  H124  1  0.50000000  0.19949400  0.18940406  1
  H  H125  1  0.50000000  0.20011962  0.31602448  1
  H  H126  1  0.50000000  0.20215113  0.43558582  1
  H  H127  1  0.50000000  0.50961138  0.06753234  1
  H  H128  1  0.50000000  0.51014032  0.18890411  1
  H  H129  1  0.50000000  0.50956275  0.31503873  1
  H  H130  1  0.50000000  0.50742590  0.42811436  1
  H  H131  1  0.50000000  0.53872713  0.98680478  1
  H  H132  1  0.50000000  0.54617553  0.45943780  1
  H  H133  1  0.50000000  0.62109406  0.46603660  1
  H  H134  1  0.50000000  0.59933659  0.99266323  1
  H  H135  1  0.50000000  0.67982971  0.99741048  1
  H  H136  1  0.50000000  0.68409313  0.46842639  1
  H  H137  1  0.50000000  0.76518001  0.47251998  1
  H  H138  1  0.50000000  0.74377070  1.00135856  1
  H  H139  1  0.50000000  0.82606681  1.00458025  1
