# generated using pymatgen
data_H5C28
_symmetry_space_group_name_H-M   'P 1'
_cell_length_a   10.00000000
_cell_length_b   25.62946000
_cell_length_c   19.78451534
_cell_angle_alpha   90.00000000
_cell_angle_beta   90.00000000
_cell_angle_gamma   90.00000000
_symmetry_Int_Tables_number   1
_chemical_formula_structural   H5C28
_chemical_formula_sum   'H20 C112'
_cell_volume   5070.66444520
_cell_formula_units_Z   4
loop_
 _symmetry_equiv_pos_site_id
 _symmetry_equiv_pos_as_xyz
  1  'x, y, z'
loop_
 _atom_site_type_symbol
 _atom_site_label
 _atom_site_symmetry_multiplicity
 _atom_site_fract_x
 _atom_site_fract_y
 _atom_site_fract_z
 _atom_site_occupancy
  C  C0  1  0.49999883  0.82205572  0.52005048  1
  C  C1  1  0.49999828  0.80653382  0.63579988  1
  C  C2  1  0.49999852  0.80572632  0.75811702  1
  C  C3  1  0.49999911  0.80600686  0.88214362  1
  C  C4  1  0.50000121  0.17794437  0.52005034  1
  C  C5  1  0.50000182  0.19346624  0.63579982  1
  C  C6  1  0.50000147  0.19427369  0.75811709  1
  C  C7  1  0.50000079  0.19399313  0.88214363  1
  C  C8  1  0.50000159  0.21636614  0.57036789  1
  C  C9  1  0.50000191  0.22118391  0.69608144  1
  C  C10  1  0.50000131  0.22109676  0.81936044  1
  C  C11  1  0.50000040  0.22084885  0.94208587  1
  C  C12  1  0.50000049  0.27862322  0.06958096  1
  C  C13  1  0.50000040  0.27856253  0.19405839  1
  C  C14  1  0.50000014  0.27888707  0.31866713  1
  C  C15  1  0.50000036  0.27920646  0.44234519  1
  C  C16  1  0.50000131  0.27428792  0.56794579  1
  C  C17  1  0.50000145  0.27718505  0.69432115  1
  C  C18  1  0.50000097  0.27717114  0.81912217  1
  C  C19  1  0.50000039  0.27643509  0.94393041  1
  C  C20  1  0.50000032  0.30449408  0.00737347  1
  C  C21  1  0.50000034  0.30531386  0.13198101  1
  C  C22  1  0.50000020  0.30525112  0.25627540  1
  C  C23  1  0.50000016  0.30602966  0.38039835  1
  C  C24  1  0.50000072  0.30359984  0.50564054  1
  C  C25  1  0.50000110  0.30314414  0.63012129  1
  C  C26  1  0.50000085  0.30491400  0.75627000  1
  C  C27  1  0.50000047  0.30462454  0.88172090  1
  C  C28  1  0.50000014  0.36066858  0.00644392  1
  C  C29  1  0.50000014  0.36141157  0.13144534  1
  C  C30  1  0.50000014  0.36152665  0.25622193  1
  C  C31  1  0.50000015  0.36187402  0.38098260  1
  C  C32  1  0.50000042  0.36013214  0.50643988  1
  C  C33  1  0.50000045  0.35961454  0.63086633  1
  C  C34  1  0.50000020  0.36070593  0.75631477  1
  C  C35  1  0.50000010  0.36068539  0.88144140  1
  C  C36  1  0.50000005  0.38859738  0.06884690  1
  C  C37  1  0.50000007  0.38897585  0.19385537  1
  C  C38  1  0.50000011  0.38923050  0.31855067  1
  C  C39  1  0.50000018  0.38848513  0.44399188  1
  C  C40  1  0.50000028  0.38789815  0.56870324  1
  C  C41  1  0.50000012  0.38781133  0.69337477  1
  C  C42  1  0.49999995  0.38841464  0.81888553  1
  C  C43  1  0.50000000  0.38838139  0.94393010  1
  C  C44  1  0.49999998  0.44445761  0.06865714  1
  C  C45  1  0.50000002  0.44467186  0.19372821  1
  C  C46  1  0.50000006  0.44484332  0.31877153  1
  C  C47  1  0.50000006  0.44435533  0.44410761  1
  C  C48  1  0.50000002  0.44402916  0.56883188  1
  C  C49  1  0.49999998  0.44391309  0.69344807  1
  C  C50  1  0.49999990  0.44432466  0.81864819  1
  C  C51  1  0.49999994  0.44426340  0.94371562  1
  C  C52  1  0.49999997  0.47209876  0.00619029  1
  C  C53  1  0.50000000  0.47214389  0.13111712  1
  C  C54  1  0.50000002  0.47222404  0.25617293  1
  C  C55  1  0.50000002  0.47212841  0.38159219  1
  C  C56  1  0.50000001  0.47204651  0.50655451  1
  C  C57  1  0.49999999  0.47199087  0.63116078  1
  C  C58  1  0.49999996  0.47196732  0.75592380  1
  C  C59  1  0.49999995  0.47205356  0.88118210  1
  C  C60  1  0.50000003  0.52790122  0.00619032  1
  C  C61  1  0.50000001  0.52785613  0.13111713  1
  C  C62  1  0.49999998  0.52777602  0.25617293  1
  C  C63  1  0.49999997  0.52787156  0.38159216  1
  C  C64  1  0.49999998  0.52795341  0.50655446  1
  C  C65  1  0.50000001  0.52800899  0.63116074  1
  C  C66  1  0.50000005  0.52803254  0.75592377  1
  C  C67  1  0.50000006  0.52794634  0.88118213  1
  C  C68  1  0.50000003  0.55554240  0.06865716  1
  C  C69  1  0.49999998  0.55532818  0.19372820  1
  C  C70  1  0.49999994  0.55515669  0.31877153  1
  C  C71  1  0.49999994  0.55564466  0.44410757  1
  C  C72  1  0.49999998  0.55597081  0.56883185  1
  C  C73  1  0.50000002  0.55608685  0.69344803  1
  C  C74  1  0.50000010  0.55567523  0.81864820  1
  C  C75  1  0.50000007  0.55573658  0.94371565  1
  C  C76  1  0.49999996  0.61140264  0.06884694  1
  C  C77  1  0.49999993  0.61102420  0.19385536  1
  C  C78  1  0.49999989  0.61076951  0.31855064  1
  C  C79  1  0.49999982  0.61151490  0.44399185  1
  C  C80  1  0.49999973  0.61210189  0.56870321  1
  C  C81  1  0.49999988  0.61218865  0.69337476  1
  C  C82  1  0.50000004  0.61158533  0.81888552  1
  C  C83  1  0.50000000  0.61161861  0.94393012  1
  C  C84  1  0.49999987  0.63933145  0.00644394  1
  C  C85  1  0.49999987  0.63858846  0.13144533  1
  C  C86  1  0.49999986  0.63847338  0.25622190  1
  C  C87  1  0.49999985  0.63812602  0.38098255  1
  C  C88  1  0.49999959  0.63986795  0.50643985  1
  C  C89  1  0.49999955  0.64038546  0.63086631  1
  C  C90  1  0.49999979  0.63929408  0.75631478  1
  C  C91  1  0.49999990  0.63931462  0.88144142  1
  C  C92  1  0.49999967  0.69550595  0.00737348  1
  C  C93  1  0.49999966  0.69468618  0.13198099  1
  C  C94  1  0.49999981  0.69474892  0.25627539  1
  C  C95  1  0.49999985  0.69397039  0.38039838  1
  C  C96  1  0.49999930  0.69640025  0.50564056  1
  C  C97  1  0.49999892  0.69685588  0.63012124  1
  C  C98  1  0.49999914  0.69508604  0.75626993  1
  C  C99  1  0.49999952  0.69537552  0.88172087  1
  C  C100  1  0.49999950  0.72137683  0.06958093  1
  C  C101  1  0.49999960  0.72143752  0.19405836  1
  C  C102  1  0.49999986  0.72111301  0.31866714  1
  C  C103  1  0.49999965  0.72079364  0.44234523  1
  C  C104  1  0.49999873  0.72571210  0.56794584  1
  C  C105  1  0.49999856  0.72281498  0.69432109  1
  C  C106  1  0.49999901  0.72282888  0.81912212  1
  C  C107  1  0.49999958  0.72356496  0.94393041  1
  C  C108  1  0.49999846  0.78363405  0.57036795  1
  C  C109  1  0.49999813  0.77881611  0.69608147  1
  C  C110  1  0.49999864  0.77890327  0.81936035  1
  C  C111  1  0.49999953  0.77915125  0.94208583  1
  H  H112  1  0.49999868  0.86264877  0.53768099  1
  H  H113  1  0.49999875  0.84922833  0.63862701  1
  H  H114  1  0.49999892  0.84851275  0.75779787  1
  H  H115  1  0.49999913  0.84878630  0.88142048  1
  H  H116  1  0.50000133  0.13735089  0.53768093  1
  H  H117  1  0.50000141  0.15077132  0.63862688  1
  H  H118  1  0.50000106  0.15148700  0.75779788  1
  H  H119  1  0.50000072  0.15121360  0.88142066  1
  H  H120  1  0.49999928  0.81833166  0.46544516  1
  H  H121  1  0.50000075  0.18166842  0.46544463  1
  H  H122  1  0.50000002  0.19858457  0.98919103  1
  H  H123  1  0.50000061  0.23601334  0.07170774  1
  H  H124  1  0.50000045  0.23579026  0.19428283  1
  H  H125  1  0.50000017  0.23610833  0.31890323  1
  H  H126  1  0.50000023  0.23727836  0.43886063  1
  H  H127  1  0.49999938  0.76398669  0.07170767  1
  H  H128  1  0.49999954  0.76420979  0.19428284  1
  H  H129  1  0.49999985  0.76389171  0.31890326  1
  H  H130  1  0.49999978  0.76272148  0.43886063  1
  H  H131  1  0.49999988  0.80141545  0.98919099  1
