# generated using pymatgen
data_H15C44
_symmetry_space_group_name_H-M   'P 1'
_cell_length_a   10.00000000
_cell_length_b   29.89204000
_cell_length_c   19.76171229
_cell_angle_alpha   90.00000000
_cell_angle_beta   90.00000000
_cell_angle_gamma   90.00000000
_symmetry_Int_Tables_number   1
_chemical_formula_structural   H15C44
_chemical_formula_sum   'H30 C88'
_cell_volume   5907.17894174
_cell_formula_units_Z   2
loop_
 _symmetry_equiv_pos_site_id
 _symmetry_equiv_pos_as_xyz
  1  'x, y, z'
loop_
 _atom_site_type_symbol
 _atom_site_label
 _atom_site_symmetry_multiplicity
 _atom_site_fract_x
 _atom_site_fract_y
 _atom_site_fract_z
 _atom_site_occupancy
  C  C0  1  0.50000000  0.19425906  0.53701126  1
  C  C1  1  0.50000000  0.19790559  0.65966064  1
  C  C2  1  0.50000000  0.19828819  0.78352625  1
  C  C3  1  0.50000000  0.19747564  0.90790200  1
  C  C4  1  0.50000000  0.21958699  0.59572961  1
  C  C5  1  0.50000000  0.22117306  0.72142252  1
  C  C6  1  0.50000000  0.22115955  0.84571445  1
  C  C7  1  0.50000000  0.22055530  0.96872752  1
  C  C8  1  0.50000000  0.26885535  0.59602479  1
  C  C9  1  0.50000000  0.26961789  0.72171236  1
  C  C10  1  0.50000000  0.26939639  0.84641891  1
  C  C11  1  0.50000000  0.26752400  0.96955855  1
  C  C12  1  0.50000000  0.29335845  0.53553112  1
  C  C13  1  0.50000000  0.29292779  0.65856755  1
  C  C14  1  0.50000000  0.29334600  0.78363105  1
  C  C15  1  0.50000000  0.29272813  0.90933284  1
  C  C16  1  0.50000000  0.33973231  0.53553284  1
  C  C17  1  0.50000000  0.34090011  0.65872330  1
  C  C18  1  0.50000000  0.34146079  0.78364795  1
  C  C19  1  0.50000000  0.34161473  0.90902029  1
  C  C20  1  0.50000000  0.36451322  0.59614834  1
  C  C21  1  0.50000000  0.36502723  0.72150329  1
  C  C22  1  0.50000000  0.36549462  0.84639429  1
  C  C23  1  0.50000000  0.36665150  0.96933248  1
  C  C24  1  0.50000000  0.41296801  0.59622426  1
  C  C25  1  0.50000000  0.41311421  0.72146396  1
  C  C26  1  0.50000000  0.41360343  0.84610061  1
  C  C27  1  0.50000000  0.41301518  0.96898911  1
  C  C28  1  0.50000000  0.43743274  0.53538314  1
  C  C29  1  0.50000000  0.43683379  0.65869768  1
  C  C30  1  0.50000000  0.43745963  0.78324044  1
  C  C31  1  0.50000000  0.43778077  0.90833532  1
  C  C32  1  0.50000000  0.48355793  0.53543801  1
  C  C33  1  0.50000000  0.48471961  0.65877272  1
  C  C34  1  0.50000000  0.48567343  0.78303901  1
  C  C35  1  0.50000000  0.48644477  0.90800222  1
  C  C36  1  0.50000000  0.50805902  0.59634245  1
  C  C37  1  0.50000000  0.50943285  0.72087950  1
  C  C38  1  0.50000000  0.51020414  0.84543360  1
  C  C39  1  0.50000000  0.51158939  0.96833501  1
  C  C40  1  0.50000000  0.55619288  0.59630079  1
  C  C41  1  0.50000000  0.55769539  0.72030314  1
  C  C42  1  0.50000000  0.55838762  0.84500084  1
  C  C43  1  0.50000000  0.55791644  0.96788680  1
  C  C44  1  0.50000000  0.57977354  0.53540277  1
  C  C45  1  0.50000000  0.58136074  0.65725348  1
  C  C46  1  0.50000000  0.58203890  0.78183134  1
  C  C47  1  0.50000000  0.58268576  0.90718758  1
  C  C48  1  0.50000000  0.62559367  0.53383057  1
  C  C49  1  0.50000000  0.62960954  0.65534482  1
  C  C50  1  0.50000000  0.63017520  0.78067152  1
  C  C51  1  0.50000000  0.63157785  0.90647672  1
  C  C52  1  0.50000000  0.65326515  0.59177754  1
  C  C53  1  0.50000000  0.65366520  0.71770884  1
  C  C54  1  0.50000000  0.65455155  0.84281513  1
  C  C55  1  0.50000000  0.65695384  0.96615536  1
  C  C56  1  0.50000000  0.71031579  0.09356369  1
  C  C57  1  0.50000000  0.71432051  0.21701151  1
  C  C58  1  0.50000000  0.71571599  0.33973042  1
  C  C59  1  0.50000000  0.71260324  0.46093960  1
  C  C60  1  0.50000000  0.70222335  0.58934344  1
  C  C61  1  0.50000000  0.70163455  0.71617572  1
  C  C62  1  0.50000000  0.70246197  0.84185515  1
  C  C63  1  0.50000000  0.70409219  0.96692717  1
  C  C64  1  0.50000000  0.72988995  0.03019192  1
  C  C65  1  0.50000000  0.73557614  0.15446342  1
  C  C66  1  0.50000000  0.73841424  0.27805538  1
  C  C67  1  0.50000000  0.73833571  0.40139028  1
  C  C68  1  0.50000000  0.72910190  0.52653049  1
  C  C69  1  0.50000000  0.72518795  0.65218173  1
  C  C70  1  0.50000000  0.72554856  0.77838110  1
  C  C71  1  0.50000000  0.72700313  0.90397228  1
  C  C72  1  0.50000000  0.77877593  0.02737814  1
  C  C73  1  0.50000000  0.78435156  0.15242678  1
  C  C74  1  0.50000000  0.78729432  0.27793697  1
  C  C75  1  0.50000000  0.78668899  0.40367928  1
  C  C76  1  0.50000000  0.77826433  0.52944230  1
  C  C77  1  0.50000000  0.77395309  0.65376037  1
  C  C78  1  0.50000000  0.77395332  0.77826626  1
  C  C79  1  0.50000000  0.77548172  0.90261880  1
  C  C80  1  0.50000000  0.80421432  0.08778196  1
  C  C81  1  0.50000000  0.80870148  0.21405718  1
  C  C82  1  0.50000000  0.81005473  0.34113874  1
  C  C83  1  0.50000000  0.80497727  0.46965156  1
  C  C84  1  0.50000000  0.79871061  0.59321111  1
  C  C85  1  0.50000000  0.79656240  0.71602416  1
  C  C86  1  0.50000000  0.79746003  0.83991414  1
  C  C87  1  0.50000000  0.79975788  0.96376711  1
  H  H88  1  0.50000000  0.15765029  0.54028045  1
  H  H89  1  0.50000000  0.16121727  0.66090009  1
  H  H90  1  0.50000000  0.16159544  0.78341974  1
  H  H91  1  0.50000000  0.16080671  0.90670869  1
  H  H92  1  0.50000000  0.84083437  0.08356879  1
  H  H93  1  0.50000000  0.84540210  0.21210019  1
  H  H94  1  0.50000000  0.84677385  0.34115138  1
  H  H95  1  0.50000000  0.84146825  0.47639976  1
  H  H96  1  0.50000000  0.83533550  0.59638396  1
  H  H97  1  0.50000000  0.83326971  0.71582664  1
  H  H98  1  0.50000000  0.83415437  0.83881307  1
  H  H99  1  0.50000000  0.83643366  0.96150524  1
  H  H100  1  0.50000000  0.20890377  0.48629611  1
  H  H101  1  0.50000000  0.20211498  0.01664802  1
  H  H102  1  0.50000000  0.28442843  0.01861433  1
  H  H103  1  0.50000000  0.27587336  0.48689234  1
  H  H104  1  0.50000000  0.35691880  0.48675656  1
  H  H105  1  0.50000000  0.34955848  0.01826520  1
  H  H106  1  0.50000000  0.43038251  0.01764139  1
  H  H107  1  0.50000000  0.42021587  0.48661920  1
  H  H108  1  0.50000000  0.50091644  0.48682877  1
  H  H109  1  0.50000000  0.49452974  0.01725301  1
  H  H110  1  0.50000000  0.57521238  0.01662863  1
  H  H111  1  0.50000000  0.56237099  0.48686267  1
  H  H112  1  0.50000000  0.63859208  0.48335479  1
  H  H113  1  0.50000000  0.63936092  0.01454402  1
  H  H114  1  0.50000000  0.67386803  0.09930235  1
  H  H115  1  0.50000000  0.67763897  0.21906297  1
  H  H116  1  0.50000000  0.67900823  0.33952348  1
  H  H117  1  0.50000000  0.67762415  0.44868156  1
