# generated using pymatgen
data_H15C52
_symmetry_space_group_name_H-M   'P 1'
_cell_length_a   10.00000000
_cell_length_b   29.89204000
_cell_length_c   19.86007212
_cell_angle_alpha   90.00000000
_cell_angle_beta   90.00000000
_cell_angle_gamma   90.00000000
_symmetry_Int_Tables_number   1
_chemical_formula_structural   H15C52
_chemical_formula_sum   'H30 C104'
_cell_volume   5936.58070244
_cell_formula_units_Z   2
loop_
 _symmetry_equiv_pos_site_id
 _symmetry_equiv_pos_as_xyz
  1  'x, y, z'
loop_
 _atom_site_type_symbol
 _atom_site_label
 _atom_site_symmetry_multiplicity
 _atom_site_fract_x
 _atom_site_fract_y
 _atom_site_fract_z
 _atom_site_occupancy
  C  C0  1  0.50000000  0.83510927  0.49122504  1
  C  C1  1  0.50000000  0.83457293  0.61316982  1
  C  C2  1  0.50000000  0.83742488  0.73646689  1
  C  C3  1  0.50000000  0.84119298  0.86045347  1
  C  C4  1  0.50000000  0.15040481  0.53209907  1
  C  C5  1  0.50000000  0.16486975  0.64700823  1
  C  C6  1  0.50000000  0.16652030  0.76837202  1
  C  C7  1  0.50000000  0.16631808  0.89110545  1
  C  C8  1  0.50000000  0.18382144  0.58142164  1
  C  C9  1  0.50000000  0.18925504  0.70644710  1
  C  C10  1  0.50000000  0.18979402  0.82883485  1
  C  C11  1  0.50000000  0.18931015  0.95047207  1
  C  C12  1  0.50000000  0.23701773  0.07720037  1
  C  C13  1  0.50000000  0.23515693  0.20228337  1
  C  C14  1  0.50000000  0.23537822  0.32746664  1
  C  C15  1  0.50000000  0.23631013  0.45169129  1
  C  C16  1  0.50000000  0.23346961  0.57787841  1
  C  C17  1  0.50000000  0.23729413  0.70417578  1
  C  C18  1  0.50000000  0.23795170  0.82833480  1
  C  C19  1  0.50000000  0.23690990  0.95212107  1
  C  C20  1  0.50000000  0.26011645  0.01566684  1
  C  C21  1  0.50000000  0.25848613  0.14057897  1
  C  C22  1  0.50000000  0.25772636  0.26475468  1
  C  C23  1  0.50000000  0.25869220  0.38917740  1
  C  C24  1  0.50000000  0.25774819  0.51457860  1
  C  C25  1  0.50000000  0.25871424  0.63948122  1
  C  C26  1  0.50000000  0.26161905  0.76567163  1
  C  C27  1  0.50000000  0.26160573  0.89056154  1
  C  C28  1  0.50000000  0.30833917  0.01501031  1
  C  C29  1  0.50000000  0.30655947  0.14074725  1
  C  C30  1  0.50000000  0.30618129  0.26475657  1
  C  C31  1  0.50000000  0.30669635  0.38925831  1
  C  C32  1  0.50000000  0.30623386  0.51467560  1
  C  C33  1  0.50000000  0.30723594  0.63962238  1
  C  C34  1  0.50000000  0.30977041  0.76551277  1
  C  C35  1  0.50000000  0.30992302  0.89029829  1
  C  C36  1  0.50000000  0.33001195  0.07866058  1
  C  C37  1  0.50000000  0.33003650  0.20294720  1
  C  C38  1  0.50000000  0.32979812  0.32684200  1
  C  C39  1  0.50000000  0.32979088  0.45190132  1
  C  C40  1  0.50000000  0.33046721  0.57696855  1
  C  C41  1  0.50000000  0.33216452  0.70190955  1
  C  C42  1  0.50000000  0.33403398  0.82772316  1
  C  C43  1  0.50000000  0.33328955  0.95275756  1
  C  C44  1  0.50000000  0.37770336  0.07960813  1
  C  C45  1  0.50000000  0.37846985  0.20315369  1
  C  C46  1  0.50000000  0.37790213  0.32660717  1
  C  C47  1  0.50000000  0.37787562  0.45065685  1
  C  C48  1  0.50000000  0.37843464  0.57658607  1
  C  C49  1  0.50000000  0.38026022  0.70151763  1
  C  C50  1  0.50000000  0.38267640  0.82768980  1
  C  C51  1  0.50000000  0.38211228  0.95361288  1
  C  C52  1  0.50000000  0.40095532  0.01799492  1
  C  C53  1  0.50000000  0.40104786  0.14093246  1
  C  C54  1  0.50000000  0.40116970  0.26527715  1
  C  C55  1  0.50000000  0.40022561  0.38926628  1
  C  C56  1  0.50000000  0.40186868  0.51422642  1
  C  C57  1  0.50000000  0.40323814  0.63811675  1
  C  C58  1  0.50000000  0.40533930  0.76312747  1
  C  C59  1  0.50000000  0.40751716  0.88954219  1
  C  C60  1  0.50000000  0.44837455  0.51440153  1
  C  C61  1  0.50000000  0.45110230  0.63628551  1
  C  C62  1  0.50000000  0.45348799  0.76011295  1
  C  C63  1  0.50000000  0.45647940  0.88514853  1
  C  C64  1  0.50000000  0.47369089  0.57295744  1
  C  C65  1  0.50000000  0.47643394  0.69690358  1
  C  C66  1  0.50000000  0.47901815  0.82092277  1
  C  C67  1  0.50000000  0.48585196  0.94128019  1
  C  C68  1  0.50000000  0.52204524  0.56922514  1
  C  C69  1  0.50000000  0.52455633  0.69327663  1
  C  C70  1  0.50000000  0.52741347  0.81680947  1
  C  C71  1  0.50000000  0.53162090  0.93763205  1
  C  C72  1  0.50000000  0.54495146  0.50716760  1
  C  C73  1  0.50000000  0.54732593  0.62959346  1
  C  C74  1  0.50000000  0.55010111  0.75319455  1
  C  C75  1  0.50000000  0.55407438  0.87602122  1
  C  C76  1  0.50000000  0.59108463  0.50401842  1
  C  C77  1  0.50000000  0.59528391  0.62628718  1
  C  C78  1  0.50000000  0.59837333  0.75012282  1
  C  C79  1  0.50000000  0.60224795  0.87372144  1
  C  C80  1  0.50000000  0.61752941  0.56271448  1
  C  C81  1  0.50000000  0.62085824  0.68712343  1
  C  C82  1  0.50000000  0.62437386  0.81057449  1
  C  C83  1  0.50000000  0.62821571  0.93293646  1
  C  C84  1  0.50000000  0.66607249  0.55951306  1
  C  C85  1  0.50000000  0.66899327  0.68411975  1
  C  C86  1  0.50000000  0.67225856  0.80805556  1
  C  C87  1  0.50000000  0.67439784  0.93053046  1
  C  C88  1  0.50000000  0.68934013  0.49780657  1
  C  C89  1  0.50000000  0.69143486  0.62026372  1
  C  C90  1  0.50000000  0.69446731  0.74432599  1
  C  C91  1  0.50000000  0.69763406  0.86895923  1
  C  C92  1  0.50000000  0.73573127  0.49520794  1
  C  C93  1  0.50000000  0.73944646  0.61740999  1
  C  C94  1  0.50000000  0.74251696  0.74167742  1
  C  C95  1  0.50000000  0.74630218  0.86662610  1
  C  C96  1  0.50000000  0.76188998  0.55386579  1
  C  C97  1  0.50000000  0.76454817  0.67875179  1
  C  C98  1  0.50000000  0.76803592  0.80280835  1
  C  C99  1  0.50000000  0.77269803  0.92538391  1
  C  C100  1  0.50000000  0.81116819  0.55091631  1
  C  C101  1  0.50000000  0.81296981  0.67593831  1
  C  C102  1  0.50000000  0.81618360  0.79967435  1
  C  C103  1  0.50000000  0.81954009  0.92219797  1
  H  H104  1  0.50000000  0.87176411  0.49253100  1
  H  H105  1  0.50000000  0.87127057  0.61206210  1
  H  H106  1  0.50000000  0.87409336  0.73430448  1
  H  H107  1  0.50000000  0.87781148  0.85773295  1
  H  H108  1  0.50000000  0.11575553  0.55034283  1
  H  H109  1  0.50000000  0.12828813  0.65087223  1
  H  H110  1  0.50000000  0.12985043  0.76873881  1
  H  H111  1  0.50000000  0.12965414  0.89045571  1
  H  H112  1  0.50000000  0.81929750  0.44161833  1
  H  H113  1  0.50000000  0.15325966  0.47769245  1
  H  H114  1  0.50000000  0.17044429  0.99752393  1
  H  H115  1  0.50000000  0.20045986  0.07767697  1
  H  H116  1  0.50000000  0.19846997  0.20189216  1
  H  H117  1  0.50000000  0.19866812  0.32814003  1
  H  H118  1  0.50000000  0.20031396  0.44875259  1
  H  H119  1  0.50000000  0.43626973  0.02694880  1
  H  H120  1  0.50000000  0.43776664  0.14063653  1
  H  H121  1  0.50000000  0.43787419  0.26557595  1
  H  H122  1  0.50000000  0.43675410  0.38716464  1
  H  H123  1  0.50000000  0.46571520  0.46637048  1
  H  H124  1  0.50000000  0.47429802  0.99223409  1
  H  H125  1  0.50000000  0.55010712  0.98505377  1
  H  H126  1  0.50000000  0.52647451  0.45970826  1
  H  H127  1  0.50000000  0.60683869  0.45439310  1
  H  H128  1  0.50000000  0.61221008  0.98230689  1
  H  H129  1  0.50000000  0.69281720  0.97804608  1
  H  H130  1  0.50000000  0.67089706  0.45027210  1
  H  H131  1  0.50000000  0.75206729  0.44591604  1
  H  H132  1  0.50000000  0.75682355  0.97496808  1
  H  H133  1  0.50000000  0.83896954  0.96899633  1
