# generated using pymatgen
data_H7C24
_symmetry_space_group_name_H-M   'P 1'
_cell_length_a   10.00000000
_cell_length_b   29.89204000
_cell_length_c   19.87393605
_cell_angle_alpha   90.00000000
_cell_angle_beta   90.00000000
_cell_angle_gamma   90.00000000
_symmetry_Int_Tables_number   1
_chemical_formula_structural   H7C24
_chemical_formula_sum   'H28 C96'
_cell_volume   5940.72491358
_cell_formula_units_Z   4
loop_
 _symmetry_equiv_pos_site_id
 _symmetry_equiv_pos_as_xyz
  1  'x, y, z'
loop_
 _atom_site_type_symbol
 _atom_site_label
 _atom_site_symmetry_multiplicity
 _atom_site_fract_x
 _atom_site_fract_y
 _atom_site_fract_z
 _atom_site_occupancy
  C  C0  1  0.50000000  0.20124213  0.49483517  1
  C  C1  1  0.50000000  0.20173004  0.61659339  1
  C  C2  1  0.50000000  0.19847197  0.73949448  1
  C  C3  1  0.50000000  0.19456501  0.86326076  1
  C  C4  1  0.50000000  0.22521459  0.55449761  1
  C  C5  1  0.50000000  0.22325366  0.67940337  1
  C  C6  1  0.50000000  0.21962018  0.80260438  1
  C  C7  1  0.50000000  0.21620688  0.92494334  1
  C  C8  1  0.50000000  0.27447011  0.55791221  1
  C  C9  1  0.50000000  0.27171623  0.68264378  1
  C  C10  1  0.50000000  0.26776860  0.80580515  1
  C  C11  1  0.50000000  0.26304871  0.92810638  1
  C  C12  1  0.50000000  0.30071555  0.49946588  1
  C  C13  1  0.50000000  0.29679623  0.62153212  1
  C  C14  1  0.50000000  0.29389367  0.74544472  1
  C  C15  1  0.50000000  0.28933831  0.86929561  1
  C  C16  1  0.50000000  0.34705155  0.50262678  1
  C  C17  1  0.50000000  0.34475939  0.62494406  1
  C  C18  1  0.50000000  0.34225030  0.74857848  1
  C  C19  1  0.50000000  0.33787024  0.87139629  1
  C  C20  1  0.50000000  0.36993644  0.56457095  1
  C  C21  1  0.50000000  0.36758183  0.68868814  1
  C  C22  1  0.50000000  0.36468910  0.81225912  1
  C  C23  1  0.50000000  0.36030891  0.93275939  1
  C  C24  1  0.50000000  0.41839765  0.56866430  1
  C  C25  1  0.50000000  0.41580376  0.69237504  1
  C  C26  1  0.50000000  0.41314047  0.81624480  1
  C  C27  1  0.50000000  0.40617040  0.93635730  1
  C  C28  1  0.50000000  0.44363038  0.51034877  1
  C  C29  1  0.50000000  0.44109370  0.63192757  1
  C  C30  1  0.50000000  0.43871844  0.75544204  1
  C  C31  1  0.50000000  0.43558636  0.88039017  1
  C  C32  1  0.50000000  0.49063336  0.01317353  1
  C  C33  1  0.50000000  0.48992491  0.13621624  1
  C  C34  1  0.50000000  0.48962327  0.26078123  1
  C  C35  1  0.50000000  0.49099629  0.38510283  1
  C  C36  1  0.50000000  0.49016257  0.51014655  1
  C  C37  1  0.50000000  0.48899819  0.63378074  1
  C  C38  1  0.50000000  0.48694811  0.75836722  1
  C  C39  1  0.50000000  0.48461991  0.88468958  1
  C  C40  1  0.50000000  0.51348871  0.07502740  1
  C  C41  1  0.50000000  0.51233911  0.19859491  1
  C  C42  1  0.50000000  0.51290307  0.32210340  1
  C  C43  1  0.50000000  0.51367364  0.44638960  1
  C  C44  1  0.50000000  0.51383435  0.57231387  1
  C  C45  1  0.50000000  0.51219794  0.69697325  1
  C  C46  1  0.50000000  0.50955002  0.82290599  1
  C  C47  1  0.50000000  0.50973762  0.94882211  1
  C  C48  1  0.50000000  0.56111073  0.07423259  1
  C  C49  1  0.50000000  0.56079822  0.19837015  1
  C  C50  1  0.50000000  0.56091448  0.32205266  1
  C  C51  1  0.50000000  0.56168122  0.44750977  1
  C  C52  1  0.50000000  0.56192272  0.57267313  1
  C  C53  1  0.50000000  0.56053120  0.69733374  1
  C  C54  1  0.50000000  0.55826032  0.82293934  1
  C  C55  1  0.50000000  0.55841592  0.94811881  1
  C  C56  1  0.50000000  0.58291821  0.01068615  1
  C  C57  1  0.50000000  0.58440588  0.13629802  1
  C  C58  1  0.50000000  0.58464971  0.26006925  1
  C  C59  1  0.50000000  0.58397667  0.38429371  1
  C  C60  1  0.50000000  0.58573943  0.51022195  1
  C  C61  1  0.50000000  0.58555724  0.63520700  1
  C  C62  1  0.50000000  0.58309534  0.76085080  1
  C  C63  1  0.50000000  0.58198018  0.88562716  1
  C  C64  1  0.50000000  0.63093649  0.01170170  1
  C  C65  1  0.50000000  0.63241988  0.13622655  1
  C  C66  1  0.50000000  0.63312427  0.25999097  1
  C  C67  1  0.50000000  0.63167366  0.38380365  1
  C  C68  1  0.50000000  0.63430018  0.50984110  1
  C  C69  1  0.50000000  0.63430636  0.63504607  1
  C  C70  1  0.50000000  0.63145054  0.76113189  1
  C  C71  1  0.50000000  0.63010336  0.88606123  1
  C  C72  1  0.50000000  0.65395205  0.07296686  1
  C  C73  1  0.50000000  0.65579679  0.19766751  1
  C  C74  1  0.50000000  0.65536425  0.32259908  1
  C  C75  1  0.50000000  0.65409777  0.44594265  1
  C  C76  1  0.50000000  0.65943196  0.57332723  1
  C  C77  1  0.50000000  0.65645888  0.69971408  1
  C  C78  1  0.50000000  0.65461532  0.82443080  1
  C  C79  1  0.50000000  0.65412376  0.94794249  1
  C  C80  1  0.50000000  0.70895714  0.57678137  1
  C  C81  1  0.50000000  0.70454732  0.70238001  1
  C  C82  1  0.50000000  0.70248095  0.82626125  1
  C  C83  1  0.50000000  0.70089673  0.94757006  1
  C  C84  1  0.50000000  0.73948709  0.52174712  1
  C  C85  1  0.50000000  0.73018827  0.64160654  1
  C  C86  1  0.50000000  0.72697892  0.76542200  1
  C  C87  1  0.50000000  0.72575303  0.88934573  1
  C  C88  1  0.50000000  0.78610418  0.52712166  1
  C  C89  1  0.50000000  0.77858199  0.64677746  1
  C  C90  1  0.50000000  0.77533675  0.76927033  1
  C  C91  1  0.50000000  0.77497373  0.89319866  1
  C  C92  1  0.50000000  0.80619573  0.58923539  1
  C  C93  1  0.50000000  0.79968892  0.70958443  1
  C  C94  1  0.50000000  0.79781388  0.83112483  1
  C  C95  1  0.50000000  0.79881156  0.95291832  1
  H  H96  1  0.50000000  0.16458754  0.49653456  1
  H  H97  1  0.50000000  0.16501782  0.61523866  1
  H  H98  1  0.50000000  0.16181099  0.73695645  1
  H  H99  1  0.50000000  0.15795152  0.86045954  1
  H  H100  1  0.50000000  0.84259063  0.59533433  1
  H  H101  1  0.50000000  0.83633103  0.71146396  1
  H  H102  1  0.50000000  0.83449570  0.83089082  1
  H  H103  1  0.50000000  0.83546554  0.95190286  1
  H  H104  1  0.50000000  0.21669083  0.44497356  1
  H  H105  1  0.50000000  0.19673265  0.97163867  1
  H  H106  1  0.50000000  0.27886479  0.97766783  1
  H  H107  1  0.50000000  0.28471514  0.44996265  1
  H  H108  1  0.50000000  0.36547388  0.45511532  1
  H  H109  1  0.50000000  0.34182582  0.98018534  1
  H  H110  1  0.50000000  0.41751404  0.98735432  1
  H  H111  1  0.50000000  0.42625530  0.46239903  1
  H  H112  1  0.50000000  0.45532599  0.02180695  1
  H  H113  1  0.50000000  0.45320641  0.13542856  1
  H  H114  1  0.50000000  0.45294742  0.26149662  1
  H  H115  1  0.50000000  0.45446005  0.38345534  1
  H  H116  1  0.50000000  0.69050132  0.07419902  1
  H  H117  1  0.50000000  0.69248617  0.19723758  1
  H  H118  1  0.50000000  0.69207094  0.32367601  1
  H  H119  1  0.50000000  0.68960674  0.43943478  1
  H  H120  1  0.50000000  0.71880327  0.99521377  1
  H  H121  1  0.50000000  0.72944552  0.46990284  1
  H  H122  1  0.50000000  0.80606118  0.48089321  1
  H  H123  1  0.50000000  0.78296996  1.00248283  1
