# generated using pymatgen
data_H7C20
_symmetry_space_group_name_H-M   'P 1'
_cell_length_a   10.00000000
_cell_length_b   25.62946000
_cell_length_c   19.92934577
_cell_angle_alpha   90.00000000
_cell_angle_beta   90.00000000
_cell_angle_gamma   90.00000000
_symmetry_Int_Tables_number   1
_chemical_formula_structural   H7C20
_chemical_formula_sum   'H28 C80'
_cell_volume   5107.78370123
_cell_formula_units_Z   4
loop_
 _symmetry_equiv_pos_site_id
 _symmetry_equiv_pos_as_xyz
  1  'x, y, z'
loop_
 _atom_site_type_symbol
 _atom_site_label
 _atom_site_symmetry_multiplicity
 _atom_site_fract_x
 _atom_site_fract_y
 _atom_site_fract_z
 _atom_site_occupancy
  C  C0  1  0.49999650  0.81895406  0.55184760  1
  C  C1  1  0.49999540  0.81122806  0.67271640  1
  C  C2  1  0.49999760  0.80732778  0.79397776  1
  C  C3  1  0.49999957  0.80603030  0.91698263  1
  C  C4  1  0.50000264  0.18104595  0.55184760  1
  C  C5  1  0.50000488  0.18877194  0.67271641  1
  C  C6  1  0.50000261  0.19267222  0.79397777  1
  C  C7  1  0.50000090  0.19396970  0.91698264  1
  C  C8  1  0.50000406  0.21221297  0.60862059  1
  C  C9  1  0.50000404  0.21829776  0.73183534  1
  C  C10  1  0.50000149  0.22046686  0.85450830  1
  C  C11  1  0.50000008  0.22205466  0.97633064  1
  C  C12  1  0.50000358  0.26949534  0.60719147  1
  C  C13  1  0.50000350  0.27494619  0.72958042  1
  C  C14  1  0.50000115  0.27668612  0.85263651  1
  C  C15  1  0.49999940  0.27675200  0.97483380  1
  C  C16  1  0.50000224  0.29581548  0.54651186  1
  C  C17  1  0.50000334  0.30088850  0.66620128  1
  C  C18  1  0.50000197  0.30383935  0.78949805  1
  C  C19  1  0.50000003  0.30470225  0.91388684  1
  C  C20  1  0.50000086  0.34947523  0.54326428  1
  C  C21  1  0.50000213  0.35746878  0.66271818  1
  C  C22  1  0.50000117  0.36010041  0.78657715  1
  C  C23  1  0.50000003  0.36151868  0.91085870  1
  C  C24  1  0.50000112  0.38399465  0.59901266  1
  C  C25  1  0.50000132  0.38708761  0.72371703  1
  C  C26  1  0.50000035  0.38856384  0.84780383  1
  C  C27  1  0.50000019  0.39024787  0.96981894  1
  C  C28  1  0.50000031  0.44556292  0.09674426  1
  C  C29  1  0.50000048  0.44486236  0.22078733  1
  C  C30  1  0.50000039  0.44464314  0.34475023  1
  C  C31  1  0.50000019  0.44786216  0.46887238  1
  C  C32  1  0.50000040  0.44173158  0.59585372  1
  C  C33  1  0.50000052  0.44359818  0.72135826  1
  C  C34  1  0.50000020  0.44436392  0.84655811  1
  C  C35  1  0.50000021  0.44461194  0.97114870  1
  C  C36  1  0.50000018  0.47180016  0.03561787  1
  C  C37  1  0.50000024  0.47166290  0.15949092  1
  C  C38  1  0.50000026  0.47136485  0.28287612  1
  C  C39  1  0.50000015  0.47219111  0.40560480  1
  C  C40  1  0.50000012  0.47126025  0.53249367  1
  C  C41  1  0.50000024  0.47104980  0.65725468  1
  C  C42  1  0.50000019  0.47184189  0.78339371  1
  C  C43  1  0.50000009  0.47209447  0.90890039  1
  C  C44  1  0.49999993  0.52819984  0.03561787  1
  C  C45  1  0.49999986  0.52833709  0.15949092  1
  C  C46  1  0.49999973  0.52863513  0.28287612  1
  C  C47  1  0.49999971  0.52780888  0.40560480  1
  C  C48  1  0.49999978  0.52873974  0.53249366  1
  C  C49  1  0.49999979  0.52895020  0.65725469  1
  C  C50  1  0.49999980  0.52815811  0.78339371  1
  C  C51  1  0.49999985  0.52790553  0.90890038  1
  C  C52  1  0.49999981  0.55443708  0.09674427  1
  C  C53  1  0.49999960  0.55513763  0.22078733  1
  C  C54  1  0.49999947  0.55535684  0.34475023  1
  C  C55  1  0.49999930  0.55213782  0.46887238  1
  C  C56  1  0.49999972  0.55826842  0.59585372  1
  C  C57  1  0.49999954  0.55640182  0.72135825  1
  C  C58  1  0.49999964  0.55563609  0.84655811  1
  C  C59  1  0.49999970  0.55538806  0.97114870  1
  C  C60  1  0.49999949  0.61600535  0.59901266  1
  C  C61  1  0.49999880  0.61291240  0.72371703  1
  C  C62  1  0.49999925  0.61143616  0.84780383  1
  C  C63  1  0.49999930  0.60975213  0.96981893  1
  C  C64  1  0.50000075  0.65052476  0.54326428  1
  C  C65  1  0.49999830  0.64253122  0.66271817  1
  C  C66  1  0.49999873  0.63989959  0.78657714  1
  C  C67  1  0.49999913  0.63848133  0.91085870  1
  C  C68  1  0.49999926  0.70418454  0.54651187  1
  C  C69  1  0.49999709  0.69911152  0.66620128  1
  C  C70  1  0.49999812  0.69616066  0.78949804  1
  C  C71  1  0.49999907  0.69529775  0.91388684  1
  C  C72  1  0.49999693  0.73050467  0.60719147  1
  C  C73  1  0.49999686  0.72505381  0.72958042  1
  C  C74  1  0.49999873  0.72331388  0.85263651  1
  C  C75  1  0.49999922  0.72324801  0.97483379  1
  C  C76  1  0.49999599  0.78778703  0.60862058  1
  C  C77  1  0.49999630  0.78170224  0.73183532  1
  C  C78  1  0.49999870  0.77953314  0.85450828  1
  C  C79  1  0.49999965  0.77794534  0.97633062  1
  H  H80  1  0.49999642  0.86146927  0.55782437  1
  H  H81  1  0.49999541  0.85391361  0.67624724  1
  H  H82  1  0.49999809  0.85010122  0.79480704  1
  H  H83  1  0.49999978  0.84881952  0.91714596  1
  H  H84  1  0.50000277  0.13853074  0.55782435  1
  H  H85  1  0.50000442  0.14608640  0.67624724  1
  H  H86  1  0.50000211  0.14989878  0.79480705  1
  H  H87  1  0.50000115  0.15118048  0.91714596  1
  H  H88  1  0.49999752  0.80398439  0.50047954  1
  H  H89  1  0.50000081  0.19601564  0.50047954  1
  H  H90  1  0.49999984  0.20172502  0.02471849  1
  H  H91  1  0.49999839  0.29721390  0.02295910  1
  H  H92  1  0.50000170  0.27407301  0.49929226  1
  H  H93  1  0.49999905  0.36163184  0.49195759  1
  H  H94  1  0.50000043  0.36927543  0.01725377  1
  H  H95  1  0.50000041  0.40290655  0.09870792  1
  H  H96  1  0.50000093  0.40203113  0.22077703  1
  H  H97  1  0.50000076  0.40179532  0.34511860  1
  H  H98  1  0.50000039  0.40657932  0.46302535  1
  H  H99  1  0.49999966  0.59709344  0.09870793  1
  H  H100  1  0.49999925  0.59796886  0.22077703  1
  H  H101  1  0.49999902  0.59820466  0.34511860  1
  H  H102  1  0.49999812  0.59342067  0.46302535  1
  H  H103  1  0.49999915  0.63072457  0.01725377  1
  H  H104  1  0.50000364  0.63836815  0.49195760  1
  H  H105  1  0.50000061  0.72592699  0.49929226  1
  H  H106  1  0.49999894  0.70278611  0.02295910  1
  H  H107  1  0.50000002  0.79827499  0.02471847  1
