# generated using pymatgen
data_H11C36
_symmetry_space_group_name_H-M   'P 1'
_cell_length_a   10.00000000
_cell_length_b   21.36688000
_cell_length_c   19.77163590
_cell_angle_alpha   90.00000000
_cell_angle_beta   90.00000000
_cell_angle_gamma   90.00000000
_symmetry_Int_Tables_number   1
_chemical_formula_structural   H11C36
_chemical_formula_sum   'H22 C72'
_cell_volume   4224.58171679
_cell_formula_units_Z   2
loop_
 _symmetry_equiv_pos_site_id
 _symmetry_equiv_pos_as_xyz
  1  'x, y, z'
loop_
 _atom_site_type_symbol
 _atom_site_label
 _atom_site_symmetry_multiplicity
 _atom_site_fract_x
 _atom_site_fract_y
 _atom_site_fract_z
 _atom_site_occupancy
  C  C0  1  0.49999737  0.78364153  0.52222915  1
  C  C1  1  0.49999818  0.77442859  0.64455241  1
  C  C2  1  0.50000044  0.76890439  0.76737881  1
  C  C3  1  0.50000024  0.76625997  0.89159579  1
  C  C4  1  0.49999797  0.22905192  0.00185645  1
  C  C5  1  0.49999625  0.22677069  0.12781139  1
  C  C6  1  0.49999582  0.22618687  0.25439803  1
  C  C7  1  0.49999773  0.22922972  0.38108249  1
  C  C8  1  0.49999928  0.23329784  0.50595574  1
  C  C9  1  0.49999957  0.23580678  0.62917625  1
  C  C10  1  0.49999962  0.23509204  0.75235585  1
  C  C11  1  0.49999895  0.23224742  0.87664283  1
  C  C12  1  0.49999839  0.25933952  0.06541320  1
  C  C13  1  0.49999765  0.25770882  0.19125658  1
  C  C14  1  0.49999826  0.25861621  0.31699158  1
  C  C15  1  0.49999973  0.26319375  0.44267991  1
  C  C16  1  0.50000039  0.26734850  0.56688884  1
  C  C17  1  0.50000042  0.26819164  0.69080318  1
  C  C18  1  0.49999982  0.26575651  0.81515420  1
  C  C19  1  0.49999917  0.26247521  0.94005739  1
  C  C20  1  0.50000076  0.32720192  0.06609788  1
  C  C21  1  0.50000127  0.32555738  0.19136075  1
  C  C22  1  0.50000133  0.32632471  0.31614260  1
  C  C23  1  0.50000151  0.33108229  0.44185512  1
  C  C24  1  0.50000183  0.33533498  0.56630389  1
  C  C25  1  0.50000146  0.33617302  0.69065561  1
  C  C26  1  0.50000074  0.33363598  0.81570629  1
  C  C27  1  0.50000027  0.33032730  0.94092467  1
  C  C28  1  0.50000100  0.36170042  0.00416713  1
  C  C29  1  0.50000231  0.35884822  0.12908013  1
  C  C30  1  0.50000254  0.35881760  0.25353002  1
  C  C31  1  0.50000198  0.36044574  0.37785876  1
  C  C32  1  0.50000216  0.36701774  0.50350010  1
  C  C33  1  0.50000177  0.36971361  0.62830662  1
  C  C34  1  0.50000144  0.36810277  0.75371111  1
  C  C35  1  0.50000079  0.36490385  0.87887473  1
  C  C36  1  0.50000178  0.42919996  0.00578991  1
  C  C37  1  0.50000390  0.42637802  0.12970216  1
  C  C38  1  0.50000380  0.42665688  0.25311710  1
  C  C39  1  0.50000061  0.42732132  0.37642031  1
  C  C40  1  0.50000063  0.43539864  0.50208948  1
  C  C41  1  0.50000166  0.43780038  0.62781783  1
  C  C42  1  0.50000119  0.43529553  0.75424418  1
  C  C43  1  0.50000081  0.43204211  0.87986921  1
  C  C44  1  0.50000339  0.45922907  0.06782774  1
  C  C45  1  0.50000449  0.45861108  0.19110221  1
  C  C46  1  0.50000196  0.45918306  0.31460550  1
  C  C47  1  0.49999679  0.46109339  0.43731812  1
  C  C48  1  0.50000151  0.47180428  0.56553529  1
  C  C49  1  0.50000100  0.46984109  0.69237589  1
  C  C50  1  0.50000045  0.46694634  0.81811146  1
  C  C51  1  0.50000085  0.46406741  0.94265613  1
  C  C52  1  0.50000204  0.54076169  0.56913260  1
  C  C53  1  0.49999920  0.53716072  0.69502432  1
  C  C54  1  0.49999928  0.53375359  0.82006146  1
  C  C55  1  0.49999995  0.52954499  0.94270572  1
  C  C56  1  0.50000675  0.58167523  0.51264653  1
  C  C57  1  0.49999894  0.57253425  0.63347051  1
  C  C58  1  0.49999854  0.56862757  0.75867506  1
  C  C59  1  0.49999901  0.56520578  0.88406694  1
  C  C60  1  0.50000256  0.64617584  0.51611737  1
  C  C61  1  0.49999764  0.64027393  0.63718571  1
  C  C62  1  0.49999824  0.63596800  0.76185461  1
  C  C63  1  0.49999855  0.63342891  0.88742302  1
  C  C64  1  0.49999758  0.67776638  0.57755510  1
  C  C65  1  0.49999787  0.67095658  0.70150926  1
  C  C66  1  0.49999882  0.66769240  0.82593642  1
  C  C67  1  0.49999842  0.66640062  0.94907132  1
  C  C68  1  0.49999715  0.74654121  0.57967009  1
  C  C69  1  0.49999878  0.73888825  0.70420709  1
  C  C70  1  0.49999993  0.73505642  0.82820143  1
  C  C71  1  0.49999926  0.73199670  0.95105843  1
  H  H72  1  0.49999843  0.83471791  0.52716722  1
  H  H73  1  0.49999899  0.82564775  0.64824925  1
  H  H74  1  0.50000178  0.82020264  0.76915466  1
  H  H75  1  0.50000124  0.81760066  0.89240692  1
  H  H76  1  0.49999659  0.17770793  0.00008013  1
  H  H77  1  0.49999358  0.17540766  0.12682755  1
  H  H78  1  0.49999297  0.17478589  0.25498340  1
  H  H79  1  0.49999547  0.17792231  0.38397023  1
  H  H80  1  0.49999790  0.18201058  0.50850113  1
  H  H81  1  0.49999836  0.18447393  0.62969061  1
  H  H82  1  0.49999843  0.18376568  0.75086701  1
  H  H83  1  0.49999836  0.18091327  0.87472886  1
  H  H84  1  0.49999719  0.76478929  0.47083240  1
  H  H85  1  0.50000435  0.51027451  0.07115066  1
  H  H86  1  0.50000427  0.50993906  0.19116961  1
  H  H87  1  0.50000179  0.51053540  0.31402009  1
  H  H88  1  0.49998815  0.51048879  0.42801030  1
  H  H89  1  0.49999995  0.55384740  0.99104717  1
  H  H90  1  0.50001767  0.56546662  0.46134354  1
  H  H91  1  0.50000534  0.67220929  0.46847195  1
  H  H92  1  0.49999792  0.64128045  0.99723552  1
  H  H93  1  0.49999956  0.75585261  1.00010424  1
