# generated using pymatgen
data_H5C24
_symmetry_space_group_name_H-M   'P 1'
_cell_length_a   10.00000000
_cell_length_b   25.62946000
_cell_length_c   19.76751598
_cell_angle_alpha   90.00000000
_cell_angle_beta   90.00000000
_cell_angle_gamma   90.00000000
_symmetry_Int_Tables_number   1
_chemical_formula_structural   H5C24
_chemical_formula_sum   'H20 C96'
_cell_volume   5066.30760105
_cell_formula_units_Z   4
loop_
 _symmetry_equiv_pos_site_id
 _symmetry_equiv_pos_as_xyz
  1  'x, y, z'
loop_
 _atom_site_type_symbol
 _atom_site_label
 _atom_site_symmetry_multiplicity
 _atom_site_fract_x
 _atom_site_fract_y
 _atom_site_fract_z
 _atom_site_occupancy
  C  C0  1  0.49999915  0.23474113  0.00530292  1
  C  C1  1  0.49999938  0.23392636  0.13067848  1
  C  C2  1  0.49999943  0.23381539  0.25642774  1
  C  C3  1  0.49999932  0.23443381  0.38208643  1
  C  C4  1  0.49999960  0.23534289  0.50714200  1
  C  C5  1  0.49999963  0.23605235  0.63166476  1
  C  C6  1  0.49999933  0.23622471  0.75594272  1
  C  C7  1  0.49999880  0.23569871  0.88038350  1
  C  C8  1  0.49999942  0.26080422  0.06817368  1
  C  C9  1  0.49999975  0.26021680  0.19356093  1
  C  C10  1  0.49999970  0.26053744  0.31913300  1
  C  C11  1  0.49999952  0.26148519  0.44442691  1
  C  C12  1  0.49999927  0.26247451  0.56923356  1
  C  C13  1  0.49999948  0.26298383  0.69375579  1
  C  C14  1  0.49999902  0.26276342  0.81828598  1
  C  C15  1  0.49999883  0.26184123  0.94307047  1
  C  C16  1  0.49999985  0.31722156  0.06835964  1
  C  C17  1  0.50000026  0.31665135  0.19356887  1
  C  C18  1  0.50000028  0.31696132  0.31902719  1
  C  C19  1  0.49999991  0.31790549  0.44426943  1
  C  C20  1  0.49999943  0.31893045  0.56906717  1
  C  C21  1  0.49999965  0.31949122  0.69368594  1
  C  C22  1  0.49999942  0.31920562  0.81838802  1
  C  C23  1  0.49999934  0.31825956  0.94328524  1
  C  C24  1  0.49999989  0.34530034  0.00604319  1
  C  C25  1  0.50000022  0.34440407  0.13106166  1
  C  C26  1  0.50000037  0.34409595  0.25619048  1
  C  C27  1  0.50000029  0.34488623  0.38148744  1
  C  C28  1  0.50000000  0.34609876  0.50648972  1
  C  C29  1  0.49999991  0.34700952  0.63123262  1
  C  C30  1  0.49999989  0.34717071  0.75604529  1
  C  C31  1  0.49999979  0.34639711  0.88102230  1
  C  C32  1  0.50000036  0.40128611  0.00606713  1
  C  C33  1  0.50000017  0.40033284  0.13106039  1
  C  C34  1  0.50000009  0.39989944  0.25605756  1
  C  C35  1  0.50000029  0.40081084  0.38143110  1
  C  C36  1  0.50000059  0.40211872  0.50647296  1
  C  C37  1  0.50000068  0.40315189  0.63114257  1
  C  C38  1  0.50000073  0.40329352  0.75582981  1
  C  C39  1  0.50000069  0.40243350  0.88096691  1
  C  C40  1  0.50000017  0.42839161  0.06875070  1
  C  C41  1  0.49999990  0.42762225  0.19368306  1
  C  C42  1  0.49999994  0.42758041  0.31841682  1
  C  C43  1  0.50000045  0.42911706  0.44381387  1
  C  C44  1  0.50000094  0.43064883  0.56858439  1
  C  C45  1  0.50000094  0.43132040  0.69333131  1
  C  C46  1  0.50000099  0.43059771  0.81855412  1
  C  C47  1  0.50000070  0.42960647  0.94376585  1
  C  C48  1  0.49999994  0.48428687  0.06894242  1
  C  C49  1  0.49999967  0.48343500  0.19371419  1
  C  C50  1  0.49999974  0.48317382  0.31803257  1
  C  C51  1  0.50000019  0.48503660  0.44372014  1
  C  C52  1  0.50000077  0.48691046  0.56840327  1
  C  C53  1  0.50000079  0.48758971  0.69304834  1
  C  C54  1  0.50000066  0.48657757  0.81861007  1
  C  C55  1  0.50000031  0.48550012  0.94397010  1
  C  C56  1  0.49999997  0.51261631  0.00674203  1
  C  C57  1  0.49999982  0.51121486  0.13149989  1
  C  C58  1  0.49999977  0.51099125  0.25586666  1
  C  C59  1  0.49999998  0.51064879  0.38021191  1
  C  C60  1  0.50000031  0.51412242  0.50596276  1
  C  C61  1  0.50000042  0.51580743  0.63047767  1
  C  C62  1  0.50000030  0.51484966  0.75608035  1
  C  C63  1  0.50000002  0.51361636  0.88143158  1
  C  C64  1  0.49999987  0.56865035  0.00791848  1
  C  C65  1  0.50000020  0.56729459  0.13200092  1
  C  C66  1  0.50000043  0.56735091  0.25574180  1
  C  C67  1  0.50000025  0.56616742  0.37921093  1
  C  C68  1  0.49999999  0.57079567  0.50487970  1
  C  C69  1  0.49999967  0.57263654  0.62977723  1
  C  C70  1  0.49999927  0.57082207  0.75623000  1
  C  C71  1  0.49999935  0.56945313  0.88197415  1
  C  C72  1  0.50000008  0.59430270  0.06991339  1
  C  C73  1  0.50000070  0.59409883  0.19370444  1
  C  C74  1  0.50000070  0.59371135  0.31791448  1
  C  C75  1  0.50000002  0.59321114  0.44064015  1
  C  C76  1  0.49999981  0.60132068  0.56736110  1
  C  C77  1  0.49999906  0.59928469  0.69411449  1
  C  C78  1  0.49999900  0.59787949  0.81985134  1
  C  C79  1  0.49999972  0.59697229  0.94442063  1
  C  C80  1  0.49999971  0.65916044  0.56956504  1
  C  C81  1  0.49999900  0.65529515  0.69611069  1
  C  C82  1  0.49999941  0.65358022  0.82133736  1
  C  C83  1  0.50000041  0.65164975  0.94391453  1
  C  C84  1  0.50000010  0.69426812  0.51357602  1
  C  C85  1  0.49999933  0.68462509  0.63442792  1
  C  C86  1  0.49999954  0.68161248  0.75946540  1
  C  C87  1  0.50000019  0.68073001  0.88492716  1
  C  C88  1  0.49999965  0.74870171  0.51830211  1
  C  C89  1  0.49999958  0.74106062  0.63888817  1
  C  C90  1  0.50000053  0.73792205  0.76241665  1
  C  C91  1  0.50000089  0.73827621  0.88752362  1
  C  C92  1  0.49999936  0.77275184  0.58042871  1
  C  C93  1  0.50000056  0.76592169  0.70195239  1
  C  C94  1  0.50000122  0.76434506  0.82450258  1
  C  C95  1  0.50000105  0.76746860  0.94649196  1
  H  H96  1  0.49999935  0.19195542  0.00456090  1
  H  H97  1  0.49999924  0.19111951  0.13015069  1
  H  H98  1  0.49999885  0.19099358  0.25656810  1
  H  H99  1  0.49999891  0.19161187  0.38279153  1
  H  H100  1  0.50000029  0.19254334  0.50784139  1
  H  H101  1  0.50000016  0.19323571  0.63205176  1
  H  H102  1  0.49999933  0.19342211  0.75587561  1
  H  H103  1  0.49999873  0.19292115  0.87967799  1
  H  H104  1  0.49999947  0.81527543  0.58592638  1
  H  H105  1  0.50000106  0.80866607  0.70354702  1
  H  H106  1  0.50000198  0.80713666  0.82393536  1
  H  H107  1  0.50000133  0.81018068  0.94294391  1
  H  H108  1  0.50000007  0.63689025  0.07266542  1
  H  H109  1  0.50000116  0.63686153  0.19363089  1
  H  H110  1  0.50000121  0.63652683  0.31864778  1
  H  H111  1  0.49999952  0.63450047  0.43347933  1
  H  H112  1  0.50000104  0.67247029  0.99196132  1
  H  H113  1  0.50000109  0.68223999  0.46148056  1
  H  H114  1  0.49999986  0.77144954  0.47135532  1
  H  H115  1  0.50000030  0.75076149  0.99740359  1
