# generated using pymatgen
data_H11C60
_symmetry_space_group_name_H-M   'P 1'
_cell_length_a   10.00000000
_cell_length_b   29.89204000
_cell_length_c   19.79589038
_cell_angle_alpha   90.00000000
_cell_angle_beta   90.00000000
_cell_angle_gamma   90.00000000
_symmetry_Int_Tables_number   1
_chemical_formula_structural   H11C60
_chemical_formula_sum   'H22 C120'
_cell_volume   5917.39547163
_cell_formula_units_Z   2
loop_
 _symmetry_equiv_pos_site_id
 _symmetry_equiv_pos_as_xyz
  1  'x, y, z'
loop_
 _atom_site_type_symbol
 _atom_site_label
 _atom_site_symmetry_multiplicity
 _atom_site_fract_x
 _atom_site_fract_y
 _atom_site_fract_z
 _atom_site_occupancy
  C  C0  1  0.50000000  0.19902354  0.50644589  1
  C  C1  1  0.50000000  0.20146435  0.62834655  1
  C  C2  1  0.50000000  0.20018033  0.75060292  1
  C  C3  1  0.50000000  0.19439114  0.87183407  1
  C  C4  1  0.50000000  0.22385106  0.56549181  1
  C  C5  1  0.50000000  0.22420633  0.69026080  1
  C  C6  1  0.50000000  0.22157342  0.81348418  1
  C  C7  1  0.50000000  0.21501984  0.93386767  1
  C  C8  1  0.50000000  0.27315508  0.56811742  1
  C  C9  1  0.50000000  0.27250917  0.69321127  1
  C  C10  1  0.50000000  0.26999467  0.81786757  1
  C  C11  1  0.50000000  0.26169325  0.93844811  1
  C  C12  1  0.50000000  0.29797954  0.50915152  1
  C  C13  1  0.50000000  0.29653248  0.63146731  1
  C  C14  1  0.50000000  0.29515123  0.75632482  1
  C  C15  1  0.50000000  0.29184458  0.88258677  1
  C  C16  1  0.50000000  0.34796510  0.01142328  1
  C  C17  1  0.50000000  0.34715823  0.13423235  1
  C  C18  1  0.50000000  0.34659319  0.25874763  1
  C  C19  1  0.50000000  0.34665402  0.38290927  1
  C  C20  1  0.50000000  0.34482961  0.50846258  1
  C  C21  1  0.50000000  0.34431607  0.63287991  1
  C  C22  1  0.50000000  0.34322592  0.75838365  1
  C  C23  1  0.50000000  0.34142828  0.88487881  1
  C  C24  1  0.50000000  0.37088432  0.07297294  1
  C  C25  1  0.50000000  0.36953456  0.19660542  1
  C  C26  1  0.50000000  0.36957632  0.32058223  1
  C  C27  1  0.50000000  0.36886446  0.44476636  1
  C  C28  1  0.50000000  0.36861549  0.57081240  1
  C  C29  1  0.50000000  0.36765611  0.69635426  1
  C  C30  1  0.50000000  0.36613564  0.82259217  1
  C  C31  1  0.50000000  0.36745156  0.94736477  1
  C  C32  1  0.50000000  0.41844728  0.07201681  1
  C  C33  1  0.50000000  0.41781131  0.19646451  1
  C  C34  1  0.50000000  0.41763264  0.32103080  1
  C  C35  1  0.50000000  0.41688353  0.44590827  1
  C  C36  1  0.50000000  0.41648922  0.57124423  1
  C  C37  1  0.50000000  0.41565625  0.69650844  1
  C  C38  1  0.50000000  0.41481572  0.82193143  1
  C  C39  1  0.50000000  0.41599879  0.94637311  1
  C  C40  1  0.50000000  0.44067184  0.00865192  1
  C  C41  1  0.50000000  0.44173930  0.13429468  1
  C  C42  1  0.50000000  0.44132230  0.25868780  1
  C  C43  1  0.50000000  0.44087234  0.38355747  1
  C  C44  1  0.50000000  0.44038863  0.50860915  1
  C  C45  1  0.50000000  0.43987276  0.63399568  1
  C  C46  1  0.50000000  0.43912414  0.75947625  1
  C  C47  1  0.50000000  0.43949331  0.88400969  1
  C  C48  1  0.50000000  0.48852349  0.00834047  1
  C  C49  1  0.50000000  0.48929942  0.13382016  1
  C  C50  1  0.50000000  0.48903731  0.25872785  1
  C  C51  1  0.50000000  0.48870120  0.38378118  1
  C  C52  1  0.50000000  0.48820573  0.50879439  1
  C  C53  1  0.50000000  0.48786452  0.63398976  1
  C  C54  1  0.50000000  0.48742049  0.75911827  1
  C  C55  1  0.50000000  0.48768745  0.88368638  1
  C  C56  1  0.50000000  0.51248170  0.07082417  1
  C  C57  1  0.50000000  0.51272788  0.19633003  1
  C  C58  1  0.50000000  0.51248525  0.32133219  1
  C  C59  1  0.50000000  0.51219826  0.44632975  1
  C  C60  1  0.50000000  0.51182699  0.57142437  1
  C  C61  1  0.50000000  0.51156162  0.69666470  1
  C  C62  1  0.50000000  0.51160680  0.82131259  1
  C  C63  1  0.50000000  0.51201945  0.94580930  1
  C  C64  1  0.50000000  0.56025733  0.07076678  1
  C  C65  1  0.50000000  0.56029732  0.19622722  1
  C  C66  1  0.50000000  0.56020179  0.32127272  1
  C  C67  1  0.50000000  0.55999872  0.44625091  1
  C  C68  1  0.50000000  0.55974566  0.57125031  1
  C  C69  1  0.50000000  0.55966073  0.69657273  1
  C  C70  1  0.50000000  0.55977257  0.82125362  1
  C  C71  1  0.50000000  0.56000570  0.94579071  1
  C  C72  1  0.50000000  0.58394427  0.00817718  1
  C  C73  1  0.50000000  0.58371528  0.13357119  1
  C  C74  1  0.50000000  0.58383327  0.25868236  1
  C  C75  1  0.50000000  0.58376000  0.38377146  1
  C  C76  1  0.50000000  0.58371589  0.50874066  1
  C  C77  1  0.50000000  0.58342583  0.63380617  1
  C  C78  1  0.50000000  0.58377698  0.75894967  1
  C  C79  1  0.50000000  0.58392073  0.88347379  1
  C  C80  1  0.50000000  0.63190381  0.00830975  1
  C  C81  1  0.50000000  0.63139145  0.13378409  1
  C  C82  1  0.50000000  0.63156438  0.25849619  1
  C  C83  1  0.50000000  0.63160720  0.38347537  1
  C  C84  1  0.50000000  0.63160931  0.50839363  1
  C  C85  1  0.50000000  0.63136130  0.63349789  1
  C  C86  1  0.50000000  0.63194153  0.75900946  1
  C  C87  1  0.50000000  0.63208123  0.88361733  1
  C  C88  1  0.50000000  0.65481599  0.07132477  1
  C  C89  1  0.50000000  0.65515166  0.19613951  1
  C  C90  1  0.50000000  0.65505307  0.32096580  1
  C  C91  1  0.50000000  0.65539788  0.44589984  1
  C  C92  1  0.50000000  0.65519963  0.57095581  1
  C  C93  1  0.50000000  0.65515520  0.69600978  1
  C  C94  1  0.50000000  0.65628314  0.82144644  1
  C  C95  1  0.50000000  0.65605878  0.94579342  1
  C  C96  1  0.50000000  0.70272955  0.07189469  1
  C  C97  1  0.50000000  0.70345897  0.19619268  1
  C  C98  1  0.50000000  0.70313635  0.32057908  1
  C  C99  1  0.50000000  0.70351271  0.44501709  1
  C  C100  1  0.50000000  0.70322472  0.57057284  1
  C  C101  1  0.50000000  0.70301498  0.69587474  1
  C  C102  1  0.50000000  0.70472333  0.82202886  1
  C  C103  1  0.50000000  0.70452049  0.94652428  1
  C  C104  1  0.50000000  0.72556633  0.00974186  1
  C  C105  1  0.50000000  0.72601859  0.13368981  1
  C  C106  1  0.50000000  0.72616774  0.25858906  1
  C  C107  1  0.50000000  0.72591261  0.38298319  1
  C  C108  1  0.50000000  0.72743172  0.50846522  1
  C  C109  1  0.50000000  0.72677547  0.63301350  1
  C  C110  1  0.50000000  0.72685033  0.75771673  1
  C  C111  1  0.50000000  0.72958319  0.88407836  1
  C  C112  1  0.50000000  0.77504776  0.51002658  1
  C  C113  1  0.50000000  0.77485017  0.63255733  1
  C  C114  1  0.50000000  0.77487065  0.75572203  1
  C  C115  1  0.50000000  0.77929241  0.88129962  1
  C  C116  1  0.50000000  0.79810853  0.56981687  1
  C  C117  1  0.50000000  0.79784983  0.69365457  1
  C  C118  1  0.50000000  0.79881645  0.81576829  1
  C  C119  1  0.50000000  0.81238491  0.93134114  1
  H  H120  1  0.50000000  0.16241218  0.50950631  1
  H  H121  1  0.50000000  0.16478405  0.62909017  1
  H  H122  1  0.50000000  0.16352683  0.74918884  1
  H  H123  1  0.50000000  0.15792414  0.86638928  1
  H  H124  1  0.50000000  0.83478297  0.57022888  1
  H  H125  1  0.50000000  0.83452597  0.69373223  1
  H  H126  1  0.50000000  0.83543051  0.81243212  1
  H  H127  1  0.50000000  0.84712398  0.91348485  1
  H  H128  1  0.50000000  0.21362981  0.45582621  1
  H  H129  1  0.50000000  0.19561814  0.98087683  1
  H  H130  1  0.50000000  0.27194505  0.99045825  1
  H  H131  1  0.50000000  0.28002511  0.46127715  1
  H  H132  1  0.50000000  0.31254778  0.01833824  1
  H  H133  1  0.50000000  0.31046365  0.13323572  1
  H  H134  1  0.50000000  0.30990991  0.25876581  1
  H  H135  1  0.50000000  0.31010799  0.38063485  1
  H  H136  1  0.50000000  0.76153824  0.01298771  1
  H  H137  1  0.50000000  0.76272001  0.13317834  1
  H  H138  1  0.50000000  0.76284348  0.25892412  1
  H  H139  1  0.50000000  0.76246437  0.38116441  1
  H  H140  1  0.50000000  0.79394391  0.46279027  1
  H  H141  1  0.50000000  0.80954152  0.98595392  1
