# generated using pymatgen
data_H15C52
_symmetry_space_group_name_H-M   'P 1'
_cell_length_a   10.00000000
_cell_length_b   29.89204000
_cell_length_c   19.86178331
_cell_angle_alpha   90.00000000
_cell_angle_beta   90.00000000
_cell_angle_gamma   90.00000000
_symmetry_Int_Tables_number   1
_chemical_formula_structural   H15C52
_chemical_formula_sum   'H30 C104'
_cell_volume   5937.09221242
_cell_formula_units_Z   2
loop_
 _symmetry_equiv_pos_site_id
 _symmetry_equiv_pos_as_xyz
  1  'x, y, z'
loop_
 _atom_site_type_symbol
 _atom_site_label
 _atom_site_symmetry_multiplicity
 _atom_site_fract_x
 _atom_site_fract_y
 _atom_site_fract_z
 _atom_site_occupancy
  C  C0  1  0.50000000  0.83560951  0.49477635  1
  C  C1  1  0.50000000  0.83477779  0.61663061  1
  C  C2  1  0.50000000  0.83768014  0.73970009  1
  C  C3  1  0.50000000  0.84111612  0.86368842  1
  C  C4  1  0.50000000  0.15283765  0.53118849  1
  C  C5  1  0.50000000  0.16019284  0.65259388  1
  C  C6  1  0.50000000  0.16465958  0.77456964  1
  C  C7  1  0.50000000  0.16768394  0.89842460  1
  C  C8  1  0.50000000  0.17983142  0.58785062  1
  C  C9  1  0.50000000  0.18594545  0.71151012  1
  C  C10  1  0.50000000  0.18924042  0.83469872  1
  C  C11  1  0.50000000  0.19268865  0.95717115  1
  C  C12  1  0.50000000  0.22900222  0.58509056  1
  C  C13  1  0.50000000  0.23454091  0.70793752  1
  C  C14  1  0.50000000  0.23734513  0.83126578  1
  C  C15  1  0.50000000  0.23946602  0.95388522  1
  C  C16  1  0.50000000  0.25114846  0.52366247  1
  C  C17  1  0.50000000  0.25631473  0.64384159  1
  C  C18  1  0.50000000  0.25992320  0.76744665  1
  C  C19  1  0.50000000  0.26217832  0.89177955  1
  C  C20  1  0.50000000  0.29718338  0.51928852  1
  C  C21  1  0.50000000  0.30479739  0.63934361  1
  C  C22  1  0.50000000  0.30814952  0.76334707  1
  C  C23  1  0.50000000  0.31066823  0.88715751  1
  C  C24  1  0.50000000  0.32704915  0.57498950  1
  C  C25  1  0.50000000  0.33067528  0.70008398  1
  C  C26  1  0.50000000  0.33336821  0.82382989  1
  C  C27  1  0.50000000  0.33577563  0.94532280  1
  C  C28  1  0.50000000  0.38238610  0.07065043  1
  C  C29  1  0.50000000  0.38055475  0.19535439  1
  C  C30  1  0.50000000  0.38098986  0.32024107  1
  C  C31  1  0.50000000  0.38213685  0.44345019  1
  C  C32  1  0.50000000  0.37638832  0.57124958  1
  C  C33  1  0.50000000  0.37895865  0.69730215  1
  C  C34  1  0.50000000  0.38124471  0.82187362  1
  C  C35  1  0.50000000  0.38225877  0.94551984  1
  C  C36  1  0.50000000  0.40536168  0.00942621  1
  C  C37  1  0.50000000  0.40392599  0.13396008  1
  C  C38  1  0.50000000  0.40322840  0.25765776  1
  C  C39  1  0.50000000  0.40471016  0.38144447  1
  C  C40  1  0.50000000  0.40162902  0.50756039  1
  C  C41  1  0.50000000  0.40153572  0.63284976  1
  C  C42  1  0.50000000  0.40430291  0.75859024  1
  C  C43  1  0.50000000  0.40602090  0.88340982  1
  C  C44  1  0.50000000  0.45330489  0.00836920  1
  C  C45  1  0.50000000  0.45190630  0.13401304  1
  C  C46  1  0.50000000  0.45168882  0.25774413  1
  C  C47  1  0.50000000  0.45235818  0.38201788  1
  C  C48  1  0.50000000  0.45028889  0.50805923  1
  C  C49  1  0.50000000  0.45037773  0.63304913  1
  C  C50  1  0.50000000  0.45268208  0.75836965  1
  C  C51  1  0.50000000  0.45408180  0.88310387  1
  C  C52  1  0.50000000  0.47513093  0.07191210  1
  C  C53  1  0.50000000  0.47554191  0.19605018  1
  C  C54  1  0.50000000  0.47540755  0.31978917  1
  C  C55  1  0.50000000  0.47450838  0.44535406  1
  C  C56  1  0.50000000  0.47412786  0.57053305  1
  C  C57  1  0.50000000  0.47546496  0.69507784  1
  C  C58  1  0.50000000  0.47767217  0.82043020  1
  C  C59  1  0.50000000  0.47765635  0.94573061  1
  C  C60  1  0.50000000  0.52268272  0.07267137  1
  C  C61  1  0.50000000  0.52398596  0.19626194  1
  C  C62  1  0.50000000  0.52340251  0.31981677  1
  C  C63  1  0.50000000  0.52258121  0.44428226  1
  C  C64  1  0.50000000  0.52229302  0.57015017  1
  C  C65  1  0.50000000  0.52386346  0.69480975  1
  C  C66  1  0.50000000  0.52636739  0.82061630  1
  C  C67  1  0.50000000  0.52626266  0.94647825  1
  C  C68  1  0.50000000  0.54544380  0.01081470  1
  C  C69  1  0.50000000  0.54631357  0.13381425  1
  C  C70  1  0.50000000  0.54668950  0.25846615  1
  C  C71  1  0.50000000  0.54526799  0.38291955  1
  C  C72  1  0.50000000  0.54614484  0.50804353  1
  C  C73  1  0.50000000  0.54713811  0.63168943  1
  C  C74  1  0.50000000  0.54910441  0.75624180  1
  C  C75  1  0.50000000  0.55125969  0.88241499  1
  C  C76  1  0.50000000  0.59273893  0.50841353  1
  C  C77  1  0.50000000  0.59512356  0.63005895  1
  C  C78  1  0.50000000  0.59734667  0.75359129  1
  C  C79  1  0.50000000  0.60023296  0.87848870  1
  C  C80  1  0.50000000  0.61798882  0.56685966  1
  C  C81  1  0.50000000  0.62040086  0.69066020  1
  C  C82  1  0.50000000  0.62283158  0.81451782  1
  C  C83  1  0.50000000  0.62945595  0.93469446  1
  C  C84  1  0.50000000  0.66654927  0.56321027  1
  C  C85  1  0.50000000  0.66867891  0.68734197  1
  C  C86  1  0.50000000  0.67127163  0.81088566  1
  C  C87  1  0.50000000  0.67528069  0.93142860  1
  C  C88  1  0.50000000  0.68974507  0.50147562  1
  C  C89  1  0.50000000  0.69165739  0.62376953  1
  C  C90  1  0.50000000  0.69391139  0.74737613  1
  C  C91  1  0.50000000  0.69788525  0.87025139  1
  C  C92  1  0.50000000  0.73611420  0.49868149  1
  C  C93  1  0.50000000  0.73967813  0.62080464  1
  C  C94  1  0.50000000  0.74226931  0.74474258  1
  C  C95  1  0.50000000  0.74639778  0.86871299  1
  C  C96  1  0.50000000  0.76220289  0.55733411  1
  C  C97  1  0.50000000  0.76463276  0.68210930  1
  C  C98  1  0.50000000  0.76816419  0.80538167  1
  C  C99  1  0.50000000  0.77240632  0.92789176  1
  C  C100  1  0.50000000  0.81147894  0.55432030  1
  C  C101  1  0.50000000  0.81311096  0.67934483  1
  C  C102  1  0.50000000  0.81631806  0.80269605  1
  C  C103  1  0.50000000  0.81925680  0.92524761  1
  H  H104  1  0.50000000  0.87225905  0.49662053  1
  H  H105  1  0.50000000  0.87147642  0.61563512  1
  H  H106  1  0.50000000  0.87433695  0.73742051  1
  H  H107  1  0.50000000  0.87773969  0.86125015  1
  H  H108  1  0.50000000  0.11639723  0.53711894  1
  H  H109  1  0.50000000  0.12361182  0.65688404  1
  H  H110  1  0.50000000  0.12799401  0.77665144  1
  H  H111  1  0.50000000  0.13105894  0.90043888  1
  H  H112  1  0.50000000  0.82022889  0.44483321  1
  H  H113  1  0.50000000  0.16574549  0.47971658  1
  H  H114  1  0.50000000  0.17614508  1.00644182  1
  H  H115  1  0.50000000  0.25807129  1.00124633  1
  H  H116  1  0.50000000  0.23203112  0.47670045  1
  H  H117  1  0.50000000  0.30769626  0.46771060  1
  H  H118  1  0.50000000  0.31838431  0.99327078  1
  H  H119  1  0.50000000  0.34583984  0.07191387  1
  H  H120  1  0.50000000  0.34387092  0.19491557  1
  H  H121  1  0.50000000  0.34427358  0.32122976  1
  H  H122  1  0.50000000  0.34673288  0.43593057  1
  H  H123  1  0.50000000  0.58070435  0.01963196  1
  H  H124  1  0.50000000  0.58300456  0.13285759  1
  H  H125  1  0.50000000  0.58335176  0.25906923  1
  H  H126  1  0.50000000  0.58182552  0.38126397  1
  H  H127  1  0.50000000  0.61023425  0.46046614  1
  H  H128  1  0.50000000  0.61813058  0.98568305  1
  H  H129  1  0.50000000  0.69358763  0.97898384  1
  H  H130  1  0.50000000  0.67149512  0.45380038  1
  H  H131  1  0.50000000  0.75234256  0.44929987  1
  H  H132  1  0.50000000  0.75642236  0.97735897  1
  H  H133  1  0.50000000  0.83850199  0.97225251  1
