# generated using pymatgen
data_H3C14
_symmetry_space_group_name_H-M   'P 1'
_cell_length_a   10.00000000
_cell_length_b   29.89204000
_cell_length_c   19.77438306
_cell_angle_alpha   90.00000000
_cell_angle_beta   90.00000000
_cell_angle_gamma   90.00000000
_symmetry_Int_Tables_number   1
_chemical_formula_structural   H3C14
_chemical_formula_sum   'H24 C112'
_cell_volume   5910.96649353
_cell_formula_units_Z   8
loop_
 _symmetry_equiv_pos_site_id
 _symmetry_equiv_pos_as_xyz
  1  'x, y, z'
loop_
 _atom_site_type_symbol
 _atom_site_label
 _atom_site_symmetry_multiplicity
 _atom_site_fract_x
 _atom_site_fract_y
 _atom_site_fract_z
 _atom_site_occupancy
  C  C0  1  0.50000000  0.20020441  0.00246282  1
  C  C1  1  0.50000000  0.19954875  0.12807776  1
  C  C2  1  0.50000000  0.19966441  0.25394500  1
  C  C3  1  0.50000000  0.20037126  0.37954910  1
  C  C4  1  0.50000000  0.20127393  0.50441336  1
  C  C5  1  0.50000000  0.20184618  0.62873673  1
  C  C6  1  0.50000000  0.20183836  0.75292710  1
  C  C7  1  0.50000000  0.20119115  0.87736865  1
  C  C8  1  0.50000000  0.22253391  0.06543694  1
  C  C9  1  0.50000000  0.22211616  0.19096997  1
  C  C10  1  0.50000000  0.22266614  0.31660583  1
  C  C11  1  0.50000000  0.22364842  0.44174804  1
  C  C12  1  0.50000000  0.22457074  0.56642570  1
  C  C13  1  0.50000000  0.22486651  0.69083053  1
  C  C14  1  0.50000000  0.22450027  0.81533021  1
  C  C15  1  0.50000000  0.22346617  0.94019867  1
  C  C16  1  0.50000000  0.27092370  0.06567227  1
  C  C17  1  0.50000000  0.27050875  0.19099752  1
  C  C18  1  0.50000000  0.27102793  0.31652491  1
  C  C19  1  0.50000000  0.27205925  0.44168188  1
  C  C20  1  0.50000000  0.27297630  0.56634445  1
  C  C21  1  0.50000000  0.27331461  0.69082481  1
  C  C22  1  0.50000000  0.27289377  0.81545931  1
  C  C23  1  0.50000000  0.27184155  0.94041768  1
  C  C24  1  0.50000000  0.29493344  0.00328122  1
  C  C25  1  0.50000000  0.29425009  0.12845102  1
  C  C26  1  0.50000000  0.29414950  0.25361149  1
  C  C27  1  0.50000000  0.29511539  0.37892655  1
  C  C28  1  0.50000000  0.29629845  0.50387391  1
  C  C29  1  0.50000000  0.29703486  0.62850640  1
  C  C30  1  0.50000000  0.29696733  0.75321518  1
  C  C31  1  0.50000000  0.29608310  0.87815553  1
  C  C32  1  0.50000000  0.34289511  0.00341169  1
  C  C33  1  0.50000000  0.34216456  0.12848858  1
  C  C34  1  0.50000000  0.34197515  0.25349096  1
  C  C35  1  0.50000000  0.34305784  0.37898718  1
  C  C36  1  0.50000000  0.34435219  0.50402296  1
  C  C37  1  0.50000000  0.34520925  0.62853191  1
  C  C38  1  0.50000000  0.34505829  0.75315126  1
  C  C39  1  0.50000000  0.34409720  0.87819405  1
  C  C40  1  0.50000000  0.36611984  0.06612708  1
  C  C41  1  0.50000000  0.36564195  0.19107202  1
  C  C42  1  0.50000000  0.36579382  0.31585853  1
  C  C43  1  0.50000000  0.36741364  0.44139083  1
  C  C44  1  0.50000000  0.36896278  0.56608858  1
  C  C45  1  0.50000000  0.36924745  0.69076641  1
  C  C46  1  0.50000000  0.36838311  0.81590441  1
  C  C47  1  0.50000000  0.36723636  0.94114831  1
  C  C48  1  0.50000000  0.41399092  0.06644672  1
  C  C49  1  0.50000000  0.41345183  0.19117564  1
  C  C50  1  0.50000000  0.41342325  0.31553506  1
  C  C51  1  0.50000000  0.41535584  0.44128935  1
  C  C52  1  0.50000000  0.41721598  0.56598958  1
  C  C53  1  0.50000000  0.41751748  0.69060485  1
  C  C54  1  0.50000000  0.41637773  0.81606804  1
  C  C55  1  0.50000000  0.41509917  0.94149780  1
  C  C56  1  0.50000000  0.43821235  0.00431459  1
  C  C57  1  0.50000000  0.43716261  0.12896379  1
  C  C58  1  0.50000000  0.43709628  0.25332951  1
  C  C59  1  0.50000000  0.43709101  0.37770539  1
  C  C60  1  0.50000000  0.44049526  0.50346597  1
  C  C61  1  0.50000000  0.44182690  0.62836137  1
  C  C62  1  0.50000000  0.44082883  0.75371310  1
  C  C63  1  0.50000000  0.43938927  0.87894549  1
  C  C64  1  0.50000000  0.48621898  0.00569205  1
  C  C65  1  0.50000000  0.48521122  0.12952930  1
  C  C66  1  0.50000000  0.48534178  0.25318180  1
  C  C67  1  0.50000000  0.48464035  0.37662312  1
  C  C68  1  0.50000000  0.48917362  0.50242979  1
  C  C69  1  0.50000000  0.49044889  0.62809207  1
  C  C70  1  0.50000000  0.48875945  0.75406919  1
  C  C71  1  0.50000000  0.48719847  0.87946492  1
  C  C72  1  0.50000000  0.50828692  0.06742701  1
  C  C73  1  0.50000000  0.50821579  0.19112792  1
  C  C74  1  0.50000000  0.50807002  0.31522945  1
  C  C75  1  0.50000000  0.50806974  0.43794795  1
  C  C76  1  0.50000000  0.51503571  0.56585211  1
  C  C77  1  0.50000000  0.51358669  0.69228653  1
  C  C78  1  0.50000000  0.51190680  0.81762400  1
  C  C79  1  0.50000000  0.51053833  0.94216010  1
  C  C80  1  0.50000000  0.56411325  0.56941135  1
  C  C81  1  0.50000000  0.56177133  0.69495075  1
  C  C82  1  0.50000000  0.55970219  0.81944019  1
  C  C83  1  0.50000000  0.55708449  0.94204649  1
  C  C84  1  0.50000000  0.59339038  0.51284433  1
  C  C85  1  0.50000000  0.58706200  0.63361209  1
  C  C86  1  0.50000000  0.58481564  0.75833592  1
  C  C87  1  0.50000000  0.58234184  0.88311877  1
  C  C88  1  0.50000000  0.63928593  0.51621297  1
  C  C89  1  0.50000000  0.63549343  0.63728766  1
  C  C90  1  0.50000000  0.63297331  0.76164080  1
  C  C91  1  0.50000000  0.63083658  0.88655479  1
  C  C92  1  0.50000000  0.66209703  0.57761685  1
  C  C93  1  0.50000000  0.65813155  0.70119774  1
  C  C94  1  0.50000000  0.65588311  0.82562144  1
  C  C95  1  0.50000000  0.65403036  0.94856444  1
  C  C96  1  0.50000000  0.71062025  0.57944875  1
  C  C97  1  0.50000000  0.70646166  0.70396992  1
  C  C98  1  0.50000000  0.70384878  0.82859855  1
  C  C99  1  0.50000000  0.70035349  0.95133589  1
  C  C100  1  0.50000000  0.73665774  0.52010112  1
  C  C101  1  0.50000000  0.73237707  0.64309084  1
  C  C102  1  0.50000000  0.72873620  0.76695184  1
  C  C103  1  0.50000000  0.72637711  0.89236171  1
  C  C104  1  0.50000000  0.78349215  0.52268266  1
  C  C105  1  0.50000000  0.78053396  0.64579664  1
  C  C106  1  0.50000000  0.77715549  0.76969828  1
  C  C107  1  0.50000000  0.77559930  0.89528342  1
  C  C108  1  0.50000000  0.80534898  0.58454353  1
  C  C109  1  0.50000000  0.80181761  0.70913814  1
  C  C110  1  0.50000000  0.79877955  0.83266501  1
  C  C111  1  0.50000000  0.79990651  0.95491418  1
  H  H112  1  0.50000000  0.16349850  0.00156811  1
  H  H113  1  0.50000000  0.16283397  0.12772049  1
  H  H114  1  0.50000000  0.16295683  0.25448975  1
  H  H115  1  0.50000000  0.16367114  0.38048987  1
  H  H116  1  0.50000000  0.16458334  0.50509192  1
  H  H117  1  0.50000000  0.16514442  0.62889898  1
  H  H118  1  0.50000000  0.16514936  0.75251000  1
  H  H119  1  0.50000000  0.16451597  0.87644379  1
  H  H120  1  0.50000000  0.84196541  0.58698928  1
  H  H121  1  0.50000000  0.83847208  0.71155537  1
  H  H122  1  0.50000000  0.83544302  0.83359882  1
  H  H123  1  0.50000000  0.83654594  0.95271557  1
  H  H124  1  0.50000000  0.54480227  0.07017645  1
  H  H125  1  0.50000000  0.54485482  0.19126021  1
  H  H126  1  0.50000000  0.54477112  0.31564082  1
  H  H127  1  0.50000000  0.54334697  0.42905590  1
  H  H128  1  0.50000000  0.57445640  0.99034688  1
  H  H129  1  0.50000000  0.58208783  0.46151079  1
  H  H130  1  0.50000000  0.65745783  0.46827731  1
  H  H131  1  0.50000000  0.63574788  0.99641652  1
  H  H132  1  0.50000000  0.71655704  1.00093163  1
  H  H133  1  0.50000000  0.72045692  0.47062101  1
  H  H134  1  0.50000000  0.80264625  0.47541891  1
  H  H135  1  0.50000000  0.78465734  1.00513656  1
