# generated using pymatgen
data_HC3
_symmetry_space_group_name_H-M   'P 1'
_cell_length_a   10.00000000
_cell_length_b   29.89204000
_cell_length_c   19.90604815
_cell_angle_alpha   90.00000000
_cell_angle_beta   90.00000000
_cell_angle_gamma   90.00000000
_symmetry_Int_Tables_number   1
_chemical_formula_structural   HC3
_chemical_formula_sum   'H32 C96'
_cell_volume   5950.32387465
_cell_formula_units_Z   32
loop_
 _symmetry_equiv_pos_site_id
 _symmetry_equiv_pos_as_xyz
  1  'x, y, z'
loop_
 _atom_site_type_symbol
 _atom_site_label
 _atom_site_symmetry_multiplicity
 _atom_site_fract_x
 _atom_site_fract_y
 _atom_site_fract_z
 _atom_site_occupancy
  C  C0  1  0.50000015  0.83586887  0.52804998  1
  C  C1  1  0.49999961  0.83467371  0.64933343  1
  C  C2  1  0.49999998  0.83753827  0.77171381  1
  C  C3  1  0.50000021  0.84099162  0.89536194  1
  C  C4  1  0.50000015  0.16413112  0.52804993  1
  C  C5  1  0.49999961  0.16532631  0.64933356  1
  C  C6  1  0.49999998  0.16246169  0.77171382  1
  C  C7  1  0.50000021  0.15900837  0.89536180  1
  C  C8  1  0.49999974  0.18848726  0.58718859  1
  C  C9  1  0.49999978  0.18712879  0.71166214  1
  C  C10  1  0.50000043  0.18382024  0.83451834  1
  C  C11  1  0.50000018  0.18091860  0.95677922  1
  C  C12  1  0.49999963  0.23768300  0.58990049  1
  C  C13  1  0.49999991  0.23558863  0.71422846  1
  C  C14  1  0.50000079  0.23201901  0.83709354  1
  C  C15  1  0.50000045  0.22782366  0.95931362  1
  C  C16  1  0.49999957  0.26342919  0.53110210  1
  C  C17  1  0.49999966  0.26041480  0.65301323  1
  C  C18  1  0.50000042  0.25799329  0.77664513  1
  C  C19  1  0.50000092  0.25383533  0.90021720  1
  C  C20  1  0.49999947  0.30974448  0.53365634  1
  C  C21  1  0.49999966  0.30837656  0.65582019  1
  C  C22  1  0.50000039  0.30637774  0.77920444  1
  C  C23  1  0.50000084  0.30239745  0.90157323  1
  C  C24  1  0.49999956  0.33310416  0.59513438  1
  C  C25  1  0.49999991  0.33150282  0.71919899  1
  C  C26  1  0.50000058  0.32915698  0.84245184  1
  C  C27  1  0.50000032  0.32517137  0.96239424  1
  C  C28  1  0.49999977  0.38155177  0.59826394  1
  C  C29  1  0.49999987  0.37976748  0.72229518  1
  C  C30  1  0.50000027  0.37768758  0.84600325  1
  C  C31  1  0.49999940  0.37105199  0.96563654  1
  C  C32  1  0.49999976  0.40618246  0.53915913  1
  C  C33  1  0.49999981  0.40450423  0.66130041  1
  C  C34  1  0.50000006  0.40309094  0.78512546  1
  C  C35  1  0.49999989  0.40062630  0.90970093  1
  C  C36  1  0.50000063  0.45530526  0.03997577  1
  C  C37  1  0.50000004  0.45264556  0.16414369  1
  C  C38  1  0.49999999  0.45272262  0.28804668  1
  C  C39  1  0.50000007  0.45330638  0.41217782  1
  C  C40  1  0.49999990  0.45263412  0.53784718  1
  C  C41  1  0.49999987  0.45231030  0.66252084  1
  C  C42  1  0.49999999  0.45154201  0.78752047  1
  C  C43  1  0.50000000  0.45001045  0.91295261  1
  C  C44  1  0.50000000  0.47616298  0.10324150  1
  C  C45  1  0.49999999  0.47551056  0.22600104  1
  C  C46  1  0.50000004  0.47569640  0.34938226  1
  C  C47  1  0.50000006  0.47585581  0.47329117  1
  C  C48  1  0.49999995  0.47614483  0.60020344  1
  C  C49  1  0.49999989  0.47589908  0.72558641  1
  C  C50  1  0.50000007  0.47517834  0.85150414  1
  C  C51  1  0.50000015  0.47536193  0.97636546  1
  C  C52  1  0.50000000  0.52383703  0.10324152  1
  C  C53  1  0.49999999  0.52448944  0.22600102  1
  C  C54  1  0.50000004  0.52430361  0.34938226  1
  C  C55  1  0.50000006  0.52414421  0.47329121  1
  C  C56  1  0.49999995  0.52385519  0.60020344  1
  C  C57  1  0.49999989  0.52410090  0.72558637  1
  C  C58  1  0.50000007  0.52482170  0.85150414  1
  C  C59  1  0.50000015  0.52463810  0.97636546  1
  C  C60  1  0.50000063  0.54469470  0.03997568  1
  C  C61  1  0.50000004  0.54735445  0.16414366  1
  C  C62  1  0.49999999  0.54727739  0.28804669  1
  C  C63  1  0.50000007  0.54669364  0.41217783  1
  C  C64  1  0.49999990  0.54736588  0.53784715  1
  C  C65  1  0.49999987  0.54768974  0.66252084  1
  C  C66  1  0.49999999  0.54845800  0.78752051  1
  C  C67  1  0.50000000  0.54998958  0.91295257  1
  C  C68  1  0.49999976  0.59381753  0.53915917  1
  C  C69  1  0.49999981  0.59549576  0.66130033  1
  C  C70  1  0.50000006  0.59690904  0.78512545  1
  C  C71  1  0.49999989  0.59937372  0.90970095  1
  C  C72  1  0.49999977  0.61844822  0.59826393  1
  C  C73  1  0.49999987  0.62023247  0.72229523  1
  C  C74  1  0.50000027  0.62231242  0.84600323  1
  C  C75  1  0.49999940  0.62894803  0.96563647  1
  C  C76  1  0.49999956  0.66689572  0.59513430  1
  C  C77  1  0.49999991  0.66849708  0.71919898  1
  C  C78  1  0.50000058  0.67084299  0.84245191  1
  C  C79  1  0.50000032  0.67482854  0.96239429  1
  C  C80  1  0.49999947  0.69025574  0.53365641  1
  C  C81  1  0.49999966  0.69162355  0.65582016  1
  C  C82  1  0.50000039  0.69362225  0.77920450  1
  C  C83  1  0.50000084  0.69760260  0.90157318  1
  C  C84  1  0.49999957  0.73657063  0.53110213  1
  C  C85  1  0.49999966  0.73958519  0.65301315  1
  C  C86  1  0.50000042  0.74200675  0.77664518  1
  C  C87  1  0.50000092  0.74616469  0.90021720  1
  C  C88  1  0.49999963  0.76231707  0.58990047  1
  C  C89  1  0.49999991  0.76441138  0.71422840  1
  C  C90  1  0.50000079  0.76798098  0.83709360  1
  C  C91  1  0.50000045  0.77217632  0.95931366  1
  C  C92  1  0.49999974  0.81151275  0.58718850  1
  C  C93  1  0.49999978  0.81287125  0.71166217  1
  C  C94  1  0.50000043  0.81617977  0.83451840  1
  C  C95  1  0.50000018  0.81908137  0.95677920  1
  H  H96  1  0.50000043  0.87247996  0.53058358  1
  H  H97  1  0.49999962  0.87135548  0.64863340  1
  H  H98  1  0.49999962  0.87419716  0.76898884  1
  H  H99  1  0.49999993  0.87764504  0.89253580  1
  H  H100  1  0.50000042  0.12752006  0.53058360  1
  H  H101  1  0.49999962  0.12864454  0.64863340  1
  H  H102  1  0.49999962  0.12580286  0.76898880  1
  H  H103  1  0.49999993  0.12235495  0.89253581  1
  H  H104  1  0.50000040  0.82079338  0.47804444  1
  H  H105  1  0.50000040  0.17920664  0.47804441  1
  H  H106  1  0.49999974  0.16174313  0.00377966  1
  H  H107  1  0.49999980  0.24394068  0.00860740  1
  H  H108  1  0.49999983  0.24695314  0.48202288  1
  H  H109  1  0.49999949  0.32791657  0.48607022  1
  H  H110  1  0.49999995  0.30704258  0.01005427  1
  H  H111  1  0.49999760  0.38136131  0.01704778  1
  H  H112  1  0.49999974  0.38835422  0.49160465  1
  H  H113  1  0.50000219  0.41992339  0.04587767  1
  H  H114  1  0.50000010  0.41594478  0.16414846  1
  H  H115  1  0.49999994  0.41599473  0.28791269  1
  H  H116  1  0.50000002  0.41673274  0.41028828  1
  H  H117  1  0.50000219  0.58007659  0.04587770  1
  H  H118  1  0.50000010  0.58405523  0.16414843  1
  H  H119  1  0.49999994  0.58400526  0.28791268  1
  H  H120  1  0.50000002  0.58326723  0.41028831  1
  H  H121  1  0.49999974  0.61164575  0.49160465  1
  H  H122  1  0.49999760  0.61863869  0.01704778  1
  H  H123  1  0.49999995  0.69295741  0.01005423  1
  H  H124  1  0.49999949  0.67208341  0.48607015  1
  H  H125  1  0.49999983  0.75304688  0.48202282  1
  H  H126  1  0.49999980  0.75605932  0.00860737  1
  H  H127  1  0.49999974  0.83825686  0.00377963  1
