# generated using pymatgen
data_H9C52
_symmetry_space_group_name_H-M   'P 1'
_cell_length_a   10.00000000
_cell_length_b   25.62946000
_cell_length_c   19.75725743
_cell_angle_alpha   90.00000000
_cell_angle_beta   90.00000000
_cell_angle_gamma   90.00000000
_symmetry_Int_Tables_number   1
_chemical_formula_structural   H9C52
_chemical_formula_sum   'H18 C104'
_cell_volume   5063.67838938
_cell_formula_units_Z   2
loop_
 _symmetry_equiv_pos_site_id
 _symmetry_equiv_pos_as_xyz
  1  'x, y, z'
loop_
 _atom_site_type_symbol
 _atom_site_label
 _atom_site_symmetry_multiplicity
 _atom_site_fract_x
 _atom_site_fract_y
 _atom_site_fract_z
 _atom_site_occupancy
  C  C0  1  0.50000000  0.23517451  0.00713255  1
  C  C1  1  0.50000000  0.23500846  0.13232039  1
  C  C2  1  0.50000000  0.23508446  0.25762060  1
  C  C3  1  0.50000000  0.23534921  0.38280823  1
  C  C4  1  0.50000000  0.23570246  0.50778430  1
  C  C5  1  0.50000000  0.23586924  0.63255700  1
  C  C6  1  0.50000000  0.23578739  0.75729563  1
  C  C7  1  0.50000000  0.23550429  0.88214281  1
  C  C8  1  0.50000000  0.26161680  0.06976206  1
  C  C9  1  0.50000000  0.26153082  0.19495273  1
  C  C10  1  0.50000000  0.26176861  0.32015624  1
  C  C11  1  0.50000000  0.26215044  0.44522561  1
  C  C12  1  0.50000000  0.26247871  0.57014973  1
  C  C13  1  0.50000000  0.26252020  0.69497775  1
  C  C14  1  0.50000000  0.26228949  0.81980994  1
  C  C15  1  0.50000000  0.26193923  0.94472675  1
  C  C16  1  0.50000000  0.31806551  0.06984416  1
  C  C17  1  0.50000000  0.31796703  0.19499829  1
  C  C18  1  0.50000000  0.31819046  0.32016617  1
  C  C19  1  0.50000000  0.31857191  0.44522580  1
  C  C20  1  0.50000000  0.31892384  0.57019009  1
  C  C21  1  0.50000000  0.31898355  0.69508096  1
  C  C22  1  0.50000000  0.31874859  0.81992675  1
  C  C23  1  0.50000000  0.31838546  0.94482663  1
  C  C24  1  0.50000000  0.34585239  0.00739572  1
  C  C25  1  0.50000000  0.34557151  0.13245556  1
  C  C26  1  0.50000000  0.34562038  0.25757958  1
  C  C27  1  0.50000000  0.34596114  0.38266930  1
  C  C28  1  0.50000000  0.34639103  0.50768012  1
  C  C29  1  0.50000000  0.34665974  0.63266100  1
  C  C30  1  0.50000000  0.34658815  0.75758125  1
  C  C31  1  0.50000000  0.34624323  0.88246187  1
  C  C32  1  0.50000000  0.40178423  0.00746555  1
  C  C33  1  0.50000000  0.40146178  0.13256267  1
  C  C34  1  0.50000000  0.40151050  0.25774355  1
  C  C35  1  0.50000000  0.40188273  0.38283962  1
  C  C36  1  0.50000000  0.40231425  0.50782503  1
  C  C37  1  0.50000000  0.40262803  0.63280923  1
  C  C38  1  0.50000000  0.40258801  0.75769844  1
  C  C39  1  0.50000000  0.40222547  0.88253695  1
  C  C40  1  0.50000000  0.42929035  0.07006838  1
  C  C41  1  0.50000000  0.42903962  0.19520118  1
  C  C42  1  0.50000000  0.42934318  0.32028797  1
  C  C43  1  0.50000000  0.42983212  0.44528188  1
  C  C44  1  0.50000000  0.43021700  0.57027892  1
  C  C45  1  0.50000000  0.43047981  0.69534383  1
  C  C46  1  0.50000000  0.43029327  0.82022361  1
  C  C47  1  0.50000000  0.42978870  0.94506819  1
  C  C48  1  0.50000000  0.48512098  0.07011344  1
  C  C49  1  0.50000000  0.48476116  0.19538284  1
  C  C50  1  0.50000000  0.48514302  0.32040771  1
  C  C51  1  0.50000000  0.48566848  0.44533221  1
  C  C52  1  0.50000000  0.48609441  0.57033392  1
  C  C53  1  0.50000000  0.48644610  0.69552548  1
  C  C54  1  0.50000000  0.48627028  0.82037452  1
  C  C55  1  0.50000000  0.48570584  0.94509223  1
  C  C56  1  0.50000000  0.51312905  0.00768544  1
  C  C57  1  0.50000000  0.51238535  0.13291687  1
  C  C58  1  0.50000000  0.51253507  0.25780037  1
  C  C59  1  0.50000000  0.51310673  0.38281261  1
  C  C60  1  0.50000000  0.51371689  0.50775977  1
  C  C61  1  0.50000000  0.51399210  0.63283398  1
  C  C62  1  0.50000000  0.51436810  0.75813531  1
  C  C63  1  0.50000000  0.51396671  0.88287253  1
  C  C64  1  0.50000000  0.56901695  0.00786622  1
  C  C65  1  0.50000000  0.56804311  0.13319228  1
  C  C66  1  0.50000000  0.56829986  0.25779672  1
  C  C67  1  0.50000000  0.56902097  0.38274571  1
  C  C68  1  0.50000000  0.56964011  0.50764392  1
  C  C69  1  0.50000000  0.56988377  0.63275378  1
  C  C70  1  0.50000000  0.57044250  0.75836963  1
  C  C71  1  0.50000000  0.57005292  0.88314333  1
  C  C72  1  0.50000000  0.59555618  0.07089218  1
  C  C73  1  0.50000000  0.59579751  0.19550127  1
  C  C74  1  0.50000000  0.59608718  0.32011074  1
  C  C75  1  0.50000000  0.59721489  0.44509656  1
  C  C76  1  0.50000000  0.59751625  0.57017607  1
  C  C77  1  0.50000000  0.59758263  0.69540708  1
  C  C78  1  0.50000000  0.59848361  0.82103154  1
  C  C79  1  0.50000000  0.59755758  0.94551942  1
  C  C80  1  0.50000000  0.65141923  0.07154931  1
  C  C81  1  0.50000000  0.65210650  0.19554857  1
  C  C82  1  0.50000000  0.65222823  0.31968648  1
  C  C83  1  0.50000000  0.65349420  0.44426417  1
  C  C84  1  0.50000000  0.65360690  0.56994558  1
  C  C85  1  0.50000000  0.65337766  0.69556923  1
  C  C86  1  0.50000000  0.65493962  0.82181854  1
  C  C87  1  0.50000000  0.65405671  0.94637486  1
  C  C88  1  0.50000000  0.67835309  0.00971293  1
  C  C89  1  0.50000000  0.67854234  0.13327121  1
  C  C90  1  0.50000000  0.67894661  0.25762710  1
  C  C91  1  0.50000000  0.67916680  0.38192256  1
  C  C92  1  0.50000000  0.68178788  0.50771375  1
  C  C93  1  0.50000000  0.68110589  0.63266424  1
  C  C94  1  0.50000000  0.68101049  0.75762615  1
  C  C95  1  0.50000000  0.68357542  0.88412348  1
  C  C96  1  0.50000000  0.73738499  0.50958879  1
  C  C97  1  0.50000000  0.73719111  0.63260743  1
  C  C98  1  0.50000000  0.73703580  0.75615700  1
  C  C99  1  0.50000000  0.74152871  0.88207057  1
  C  C100  1  0.50000000  0.76423224  0.56967120  1
  C  C101  1  0.50000000  0.76397500  0.69399287  1
  C  C102  1  0.50000000  0.76461377  0.81664380  1
  C  C103  1  0.50000000  0.77979758  0.93270698  1
  H  H104  1  0.50000000  0.19238961  0.00686388  1
  H  H105  1  0.50000000  0.19222769  0.13235786  1
  H  H106  1  0.50000000  0.19230127  0.25783470  1
  H  H107  1  0.50000000  0.19254706  0.38307518  1
  H  H108  1  0.50000000  0.19290580  0.50792655  1
  H  H109  1  0.50000000  0.19307035  0.63243490  1
  H  H110  1  0.50000000  0.19300225  0.75689556  1
  H  H111  1  0.50000000  0.19272188  0.88175086  1
  H  H112  1  0.50000000  0.80701338  0.57036937  1
  H  H113  1  0.50000000  0.80678137  0.69436697  1
  H  H114  1  0.50000000  0.80732857  0.81408792  1
  H  H115  1  0.50000000  0.82048744  0.91536035  1
  H  H116  1  0.50000000  0.72025182  0.01340552  1
  H  H117  1  0.50000000  0.72133624  0.13315282  1
  H  H118  1  0.50000000  0.72172699  0.25720904  1
  H  H119  1  0.50000000  0.72177314  0.37953244  1
  H  H120  1  0.50000000  0.75964944  0.46239082  1
  H  H121  1  0.50000000  0.77575335  0.98737722  1
