# generated using pymatgen
data_H3C8
_symmetry_space_group_name_H-M   'P 1'
_cell_length_a   10.00000000
_cell_length_b   21.36688000
_cell_length_c   19.86467825
_cell_angle_alpha   90.00000000
_cell_angle_beta   90.00000000
_cell_angle_gamma   90.00000000
_symmetry_Int_Tables_number   1
_chemical_formula_structural   H3C8
_chemical_formula_sum   'H24 C64'
_cell_volume   4244.46196386
_cell_formula_units_Z   8
loop_
 _symmetry_equiv_pos_site_id
 _symmetry_equiv_pos_as_xyz
  1  'x, y, z'
loop_
 _atom_site_type_symbol
 _atom_site_label
 _atom_site_symmetry_multiplicity
 _atom_site_fract_x
 _atom_site_fract_y
 _atom_site_fract_z
 _atom_site_occupancy
  C  C0  1  0.50000000  0.78262539  0.54448017  1
  C  C1  1  0.50000000  0.77371232  0.66610532  1
  C  C2  1  0.50000000  0.76893352  0.78821145  1
  C  C3  1  0.50000000  0.76734769  0.91163137  1
  C  C4  1  0.50000000  0.21453253  0.54342628  1
  C  C5  1  0.50000000  0.23499295  0.65759852  1
  C  C6  1  0.50000000  0.23558959  0.77824596  1
  C  C7  1  0.50000000  0.23319996  0.90126148  1
  C  C8  1  0.50000000  0.26182543  0.59221587  1
  C  C9  1  0.50000000  0.26865525  0.71693240  1
  C  C10  1  0.50000000  0.26679200  0.83937263  1
  C  C11  1  0.50000000  0.26445557  0.96135396  1
  C  C12  1  0.50000000  0.33017237  0.08948161  1
  C  C13  1  0.50000000  0.32769041  0.21453310  1
  C  C14  1  0.50000000  0.32757440  0.33976694  1
  C  C15  1  0.50000000  0.33337384  0.46531906  1
  C  C16  1  0.50000000  0.33166300  0.58959138  1
  C  C17  1  0.50000000  0.33604532  0.71513791  1
  C  C18  1  0.50000000  0.33419478  0.83966560  1
  C  C19  1  0.50000000  0.33105802  0.96412950  1
  C  C20  1  0.50000000  0.36288273  0.02840684  1
  C  C21  1  0.50000000  0.36029731  0.15293970  1
  C  C22  1  0.50000000  0.35903738  0.27717664  1
  C  C23  1  0.50000000  0.36088346  0.40091200  1
  C  C24  1  0.50000000  0.36570304  0.52691499  1
  C  C25  1  0.50000000  0.36727895  0.65086171  1
  C  C26  1  0.50000000  0.36830900  0.77726368  1
  C  C27  1  0.50000000  0.36572997  0.90261037  1
  C  C28  1  0.50000000  0.43088005  0.02938478  1
  C  C29  1  0.50000000  0.42830583  0.15347100  1
  C  C30  1  0.50000000  0.42761983  0.27689240  1
  C  C31  1  0.50000000  0.42802091  0.39982892  1
  C  C32  1  0.50000000  0.43454213  0.52602442  1
  C  C33  1  0.50000000  0.43614864  0.65088498  1
  C  C34  1  0.50000000  0.43547579  0.77762256  1
  C  C35  1  0.50000000  0.43302530  0.90324467  1
  C  C36  1  0.50000000  0.46093022  0.09129951  1
  C  C37  1  0.50000000  0.45982176  0.21498846  1
  C  C38  1  0.50000000  0.46001636  0.33830196  1
  C  C39  1  0.50000000  0.46053221  0.46137836  1
  C  C40  1  0.50000000  0.47071355  0.58920709  1
  C  C41  1  0.50000000  0.46892640  0.71536411  1
  C  C42  1  0.50000000  0.46741045  0.84125417  1
  C  C43  1  0.50000000  0.46527162  0.96569302  1
  C  C44  1  0.50000000  0.53980871  0.59264797  1
  C  C45  1  0.50000000  0.53643872  0.71785289  1
  C  C46  1  0.50000000  0.53427939  0.84272020  1
  C  C47  1  0.50000000  0.53084914  0.96505752  1
  C  C48  1  0.50000000  0.58046804  0.53628411  1
  C  C49  1  0.50000000  0.57171895  0.65654994  1
  C  C50  1  0.50000000  0.56845069  0.78112473  1
  C  C51  1  0.50000000  0.56614905  0.90629344  1
  C  C52  1  0.50000000  0.64500279  0.53930276  1
  C  C53  1  0.50000000  0.63948713  0.65983596  1
  C  C54  1  0.50000000  0.63589393  0.78389756  1
  C  C55  1  0.50000000  0.63446888  0.90903255  1
  C  C56  1  0.50000000  0.67675101  0.60024539  1
  C  C57  1  0.50000000  0.67052444  0.72361512  1
  C  C58  1  0.50000000  0.66810214  0.84741371  1
  C  C59  1  0.50000000  0.66812263  0.97000726  1
  C  C60  1  0.50000000  0.74556005  0.60173949  1
  C  C61  1  0.50000000  0.73848213  0.72565803  1
  C  C62  1  0.50000000  0.73549414  0.84896503  1
  C  C63  1  0.50000000  0.73376406  0.97124085  1
  H  H64  1  0.50000000  0.83372094  0.54965164  1
  H  H65  1  0.50000000  0.82493087  0.66950650  1
  H  H66  1  0.50000000  0.82022220  0.78954705  1
  H  H67  1  0.50000000  0.81866674  0.91177108  1
  H  H68  1  0.50000000  0.16643921  0.56273413  1
  H  H69  1  0.50000000  0.18386510  0.66144999  1
  H  H70  1  0.50000000  0.18428033  0.77709887  1
  H  H71  1  0.50000000  0.18188913  0.89986592  1
  H  H72  1  0.50000000  0.76379498  0.49329567  1
  H  H73  1  0.50000000  0.21674403  0.48887453  1
  H  H74  1  0.50000000  0.23718458  0.00787257  1
  H  H75  1  0.50000000  0.27897889  0.08967535  1
  H  H76  1  0.50000000  0.27631949  0.21384831  1
  H  H77  1  0.50000000  0.27622125  0.34053051  1
  H  H78  1  0.50000000  0.28310582  0.46604836  1
  H  H79  1  0.50000000  0.51206885  0.09444756  1
  H  H80  1  0.50000000  0.51113988  0.21522139  1
  H  H81  1  0.50000000  0.51138069  0.33793404  1
  H  H82  1  0.50000000  0.50995987  0.45259639  1
  H  H83  1  0.50000000  0.55544301  0.01304101  1
  H  H84  1  0.50000000  0.56404242  0.48537107  1
  H  H85  1  0.50000000  0.67086239  0.49176416  1
  H  H86  1  0.50000000  0.64353170  0.01826723  1
  H  H87  1  0.50000000  0.75824704  0.01971534  1
