# generated using pymatgen
data_H3C10
_symmetry_space_group_name_H-M   'P 1'
_cell_length_a   10.00000000
_cell_length_b   25.62946000
_cell_length_c   19.77001844
_cell_angle_alpha   90.00000000
_cell_angle_beta   90.00000000
_cell_angle_gamma   90.00000000
_symmetry_Int_Tables_number   1
_chemical_formula_structural   H3C10
_chemical_formula_sum   'H24 C80'
_cell_volume   5066.94896863
_cell_formula_units_Z   8
loop_
 _symmetry_equiv_pos_site_id
 _symmetry_equiv_pos_as_xyz
  1  'x, y, z'
loop_
 _atom_site_type_symbol
 _atom_site_label
 _atom_site_symmetry_multiplicity
 _atom_site_fract_x
 _atom_site_fract_y
 _atom_site_fract_z
 _atom_site_occupancy
  C  C0  1  0.50000000  0.23199869  0.03150742  1
  C  C1  1  0.50000000  0.23007268  0.15744278  1
  C  C2  1  0.50000000  0.22971536  0.28390592  1
  C  C3  1  0.50000000  0.23222109  0.41041972  1
  C  C4  1  0.50000000  0.23547721  0.53531972  1
  C  C5  1  0.50000000  0.23764925  0.65868631  1
  C  C6  1  0.50000000  0.23712833  0.78193892  1
  C  C7  1  0.50000000  0.23474141  0.90627665  1
  C  C8  1  0.50000000  0.25723250  0.09505015  1
  C  C9  1  0.50000000  0.25596054  0.22080113  1
  C  C10  1  0.50000000  0.25679615  0.34641262  1
  C  C11  1  0.50000000  0.26046351  0.47210600  1
  C  C12  1  0.50000000  0.26385236  0.59633219  1
  C  C13  1  0.50000000  0.26468918  0.72032439  1
  C  C14  1  0.50000000  0.26265531  0.84478115  1
  C  C15  1  0.50000000  0.25988747  0.96972076  1
  C  C16  1  0.50000000  0.31380034  0.09571545  1
  C  C17  1  0.50000000  0.31253804  0.22085531  1
  C  C18  1  0.50000000  0.31320184  0.34562992  1
  C  C19  1  0.50000000  0.31705846  0.47140183  1
  C  C20  1  0.50000000  0.32054951  0.59583628  1
  C  C21  1  0.50000000  0.32130853  0.72028040  1
  C  C22  1  0.50000000  0.31919817  0.84542104  1
  C  C23  1  0.50000000  0.31641237  0.97065588  1
  C  C24  1  0.50000000  0.34257180  0.03386215  1
  C  C25  1  0.50000000  0.34027751  0.15859999  1
  C  C26  1  0.50000000  0.34027443  0.28303060  1
  C  C27  1  0.50000000  0.34153987  0.40741878  1
  C  C28  1  0.50000000  0.34703829  0.53307874  1
  C  C29  1  0.50000000  0.34920754  0.65798088  1
  C  C30  1  0.50000000  0.34793945  0.78340905  1
  C  C31  1  0.50000000  0.34525712  0.90858535  1
  C  C32  1  0.50000000  0.39887359  0.03549062  1
  C  C33  1  0.50000000  0.39655920  0.15926340  1
  C  C34  1  0.50000000  0.39681436  0.28264923  1
  C  C35  1  0.50000000  0.39724639  0.40601787  1
  C  C36  1  0.50000000  0.40409845  0.53176575  1
  C  C37  1  0.50000000  0.40596631  0.65764924  1
  C  C38  1  0.50000000  0.40392168  0.78399419  1
  C  C39  1  0.50000000  0.40119441  0.90954815  1
  C  C40  1  0.50000000  0.42398644  0.09746723  1
  C  C41  1  0.50000000  0.42341593  0.22061480  1
  C  C42  1  0.50000000  0.42384956  0.34425054  1
  C  C43  1  0.50000000  0.42542005  0.46695251  1
  C  C44  1  0.50000000  0.43440155  0.59542585  1
  C  C45  1  0.50000000  0.43279558  0.72219240  1
  C  C46  1  0.50000000  0.43032999  0.84784357  1
  C  C47  1  0.50000000  0.42790248  0.97234875  1
  C  C48  1  0.50000000  0.49176582  0.59926323  1
  C  C49  1  0.50000000  0.48889459  0.72503143  1
  C  C50  1  0.50000000  0.48606091  0.84984003  1
  C  C51  1  0.50000000  0.48238379  0.97254464  1
  C  C52  1  0.50000000  0.52572784  0.54268341  1
  C  C53  1  0.50000000  0.51836664  0.66363461  1
  C  C54  1  0.50000000  0.51538747  0.78864734  1
  C  C55  1  0.50000000  0.51216610  0.91379224  1
  C  C56  1  0.50000000  0.57933827  0.54617498  1
  C  C57  1  0.50000000  0.57480564  0.66747772  1
  C  C58  1  0.50000000  0.57158631  0.79200365  1
  C  C59  1  0.50000000  0.56882173  0.91716485  1
  C  C60  1  0.50000000  0.60581081  0.60773924  1
  C  C61  1  0.50000000  0.60099604  0.73160977  1
  C  C62  1  0.50000000  0.59809146  0.85616726  1
  C  C63  1  0.50000000  0.59585653  0.97914765  1
  C  C64  1  0.50000000  0.66246612  0.60983986  1
  C  C65  1  0.50000000  0.65736238  0.73455980  1
  C  C66  1  0.50000000  0.65405064  0.85925125  1
  C  C67  1  0.50000000  0.64990541  0.98193829  1
  C  C68  1  0.50000000  0.69315269  0.55072002  1
  C  C69  1  0.50000000  0.68762116  0.67372245  1
  C  C70  1  0.50000000  0.68320388  0.79769531  1
  C  C71  1  0.50000000  0.68028049  0.92302090  1
  C  C72  1  0.50000000  0.74780737  0.55383723  1
  C  C73  1  0.50000000  0.74372356  0.67689914  1
  C  C74  1  0.50000000  0.73972702  0.80075864  1
  C  C75  1  0.50000000  0.73771154  0.92624200  1
  C  C76  1  0.50000000  0.77296268  0.61591099  1
  C  C77  1  0.50000000  0.76850146  0.74027036  1
  C  C78  1  0.50000000  0.76497467  0.86377451  1
  C  C79  1  0.50000000  0.76526329  0.98648451  1
  H  H80  1  0.50000000  0.18921747  0.02972376  1
  H  H81  1  0.50000000  0.18726311  0.15665511  1
  H  H82  1  0.50000000  0.18689052  0.28455868  1
  H  H83  1  0.50000000  0.18945170  0.41283446  1
  H  H84  1  0.50000000  0.19270574  0.53746879  1
  H  H85  1  0.50000000  0.19486111  0.65919389  1
  H  H86  1  0.50000000  0.19434607  0.78057061  1
  H  H87  1  0.50000000  0.19197261  0.90430074  1
  H  H88  1  0.50000000  0.81564103  0.61899886  1
  H  H89  1  0.50000000  0.81125761  0.74256774  1
  H  H90  1  0.50000000  0.80775715  0.86462417  1
  H  H91  1  0.50000000  0.80800347  0.98564231  1
  H  H92  1  0.50000000  0.46656777  0.10084536  1
  H  H93  1  0.50000000  0.46619061  0.22032243  1
  H  H94  1  0.50000000  0.46665616  0.34394671  1
  H  H95  1  0.50000000  0.46656522  0.45721470  1
  H  H96  1  0.50000000  0.50249159  0.02099750  1
  H  H97  1  0.50000000  0.51201069  0.49150460  1
  H  H98  1  0.50000000  0.60082407  0.49843428  1
  H  H99  1  0.50000000  0.57444310  0.02695647  1
  H  H100  1  0.50000000  0.66884175  0.03151490  1
  H  H101  1  0.50000000  0.67467396  0.50092204  1
  H  H102  1  0.50000000  0.77045721  0.50677612  1
  H  H103  1  0.50000000  0.74643907  0.03610876  1
