# generated using pymatgen
data_H15C44
_symmetry_space_group_name_H-M   'P 1'
_cell_length_a   10.00000000
_cell_length_b   29.89204000
_cell_length_c   19.91799201
_cell_angle_alpha   90.00000000
_cell_angle_beta   90.00000000
_cell_angle_gamma   90.00000000
_symmetry_Int_Tables_number   1
_chemical_formula_structural   H15C44
_chemical_formula_sum   'H30 C88'
_cell_volume   5953.89413871
_cell_formula_units_Z   2
loop_
 _symmetry_equiv_pos_site_id
 _symmetry_equiv_pos_as_xyz
  1  'x, y, z'
loop_
 _atom_site_type_symbol
 _atom_site_label
 _atom_site_symmetry_multiplicity
 _atom_site_fract_x
 _atom_site_fract_y
 _atom_site_fract_z
 _atom_site_occupancy
  C  C0  1  0.50000000  0.20048958  0.50753486  1
  C  C1  1  0.50000000  0.20220947  0.62876594  1
  C  C2  1  0.50000000  0.20021829  0.74985023  1
  C  C3  1  0.50000000  0.19335544  0.86968327  1
  C  C4  1  0.50000000  0.22487532  0.56665134  1
  C  C5  1  0.50000000  0.22471521  0.69046241  1
  C  C6  1  0.50000000  0.22120254  0.81253998  1
  C  C7  1  0.50000000  0.21331094  0.93171203  1
  C  C8  1  0.50000000  0.27407032  0.57030228  1
  C  C9  1  0.50000000  0.27304951  0.69446870  1
  C  C10  1  0.50000000  0.26963837  0.81792922  1
  C  C11  1  0.50000000  0.25993534  0.93719272  1
  C  C12  1  0.50000000  0.29882477  0.51181444  1
  C  C13  1  0.50000000  0.29725515  0.63345869  1
  C  C14  1  0.50000000  0.29546240  0.75755718  1
  C  C15  1  0.50000000  0.29079689  0.88266114  1
  C  C16  1  0.50000000  0.34452619  0.01365991  1
  C  C17  1  0.50000000  0.34220015  0.13865972  1
  C  C18  1  0.50000000  0.34398926  0.26297947  1
  C  C19  1  0.50000000  0.34615717  0.38646149  1
  C  C20  1  0.50000000  0.34556260  0.51118125  1
  C  C21  1  0.50000000  0.34501686  0.63538463  1
  C  C22  1  0.50000000  0.34367814  0.76073199  1
  C  C23  1  0.50000000  0.34050487  0.88656366  1
  C  C24  1  0.50000000  0.36521980  0.07719543  1
  C  C25  1  0.50000000  0.36574414  0.20019841  1
  C  C26  1  0.50000000  0.36794443  0.32352689  1
  C  C27  1  0.50000000  0.36905509  0.44720431  1
  C  C28  1  0.50000000  0.36904641  0.57340784  1
  C  C29  1  0.50000000  0.36815277  0.69898342  1
  C  C30  1  0.50000000  0.36626591  0.82540554  1
  C  C31  1  0.50000000  0.36522387  0.95022176  1
  C  C32  1  0.50000000  0.41295222  0.07708077  1
  C  C33  1  0.50000000  0.41476747  0.19960511  1
  C  C34  1  0.50000000  0.41654272  0.32295190  1
  C  C35  1  0.50000000  0.41743166  0.44706219  1
  C  C36  1  0.50000000  0.41690382  0.57394187  1
  C  C37  1  0.50000000  0.41633130  0.69959677  1
  C  C38  1  0.50000000  0.41581765  0.82579903  1
  C  C39  1  0.50000000  0.41452610  0.95054764  1
  C  C40  1  0.50000000  0.43416350  0.01422151  1
  C  C41  1  0.50000000  0.43699820  0.13742784  1
  C  C42  1  0.50000000  0.43851037  0.26086729  1
  C  C43  1  0.50000000  0.43950520  0.38552461  1
  C  C44  1  0.50000000  0.44079219  0.51183624  1
  C  C45  1  0.50000000  0.44031891  0.63670831  1
  C  C46  1  0.50000000  0.43998791  0.76204260  1
  C  C47  1  0.50000000  0.44039363  0.88750858  1
  C  C48  1  0.50000000  0.48736096  0.51400105  1
  C  C49  1  0.50000000  0.48815545  0.63638024  1
  C  C50  1  0.50000000  0.48840342  0.76033037  1
  C  C51  1  0.50000000  0.48970494  0.88482416  1
  C  C52  1  0.50000000  0.51163013  0.57370503  1
  C  C53  1  0.50000000  0.51236930  0.69797533  1
  C  C54  1  0.50000000  0.51322392  0.82163319  1
  C  C55  1  0.50000000  0.51870475  0.94129210  1
  C  C56  1  0.50000000  0.56015866  0.57204736  1
  C  C57  1  0.50000000  0.56066947  0.69604404  1
  C  C58  1  0.50000000  0.56178232  0.81915905  1
  C  C59  1  0.50000000  0.56452065  0.93928724  1
  C  C60  1  0.50000000  0.58425861  0.51123503  1
  C  C61  1  0.50000000  0.58443501  0.63331097  1
  C  C62  1  0.50000000  0.58536668  0.75657908  1
  C  C63  1  0.50000000  0.58781475  0.87890026  1
  C  C64  1  0.50000000  0.63050808  0.50988913  1
  C  C65  1  0.50000000  0.63252912  0.63183358  1
  C  C66  1  0.50000000  0.63379700  0.75536615  1
  C  C67  1  0.50000000  0.63609668  0.87867309  1
  C  C68  1  0.50000000  0.65587492  0.56931988  1
  C  C69  1  0.50000000  0.65708093  0.69346630  1
  C  C70  1  0.50000000  0.65907357  0.81653171  1
  C  C71  1  0.50000000  0.66104776  0.93865408  1
  C  C72  1  0.50000000  0.70466384  0.56792639  1
  C  C73  1  0.50000000  0.70528799  0.69243563  1
  C  C74  1  0.50000000  0.70706166  0.81599007  1
  C  C75  1  0.50000000  0.70743657  0.93798890  1
  C  C76  1  0.50000000  0.72909048  0.50746436  1
  C  C77  1  0.50000000  0.72863608  0.62967776  1
  C  C78  1  0.50000000  0.72982477  0.75309007  1
  C  C79  1  0.50000000  0.73159469  0.87762027  1
  C  C80  1  0.50000000  0.77601806  0.50691969  1
  C  C81  1  0.50000000  0.77686716  0.62906228  1
  C  C82  1  0.50000000  0.77827591  0.75230633  1
  C  C83  1  0.50000000  0.78090299  0.87699617  1
  C  C84  1  0.50000000  0.79976253  0.56668553  1
  C  C85  1  0.50000000  0.80050397  0.69013681  1
  C  C86  1  0.50000000  0.80209648  0.81312802  1
  C  C87  1  0.50000000  0.80684108  0.93467162  1
  H  H88  1  0.50000000  0.16386922  0.51000806  1
  H  H89  1  0.50000000  0.16551839  0.62919575  1
  H  H90  1  0.50000000  0.16357602  0.74774044  1
  H  H91  1  0.50000000  0.15699407  0.86313617  1
  H  H92  1  0.50000000  0.83641700  0.56694349  1
  H  H93  1  0.50000000  0.83719293  0.68939318  1
  H  H94  1  0.50000000  0.83879242  0.81125422  1
  H  H95  1  0.50000000  0.84340425  0.93037449  1
  H  H96  1  0.50000000  0.21542098  0.45743584  1
  H  H97  1  0.50000000  0.19341414  0.97790962  1
  H  H98  1  0.50000000  0.26947868  0.98908936  1
  H  H99  1  0.50000000  0.28080805  0.46434319  1
  H  H100  1  0.50000000  0.30895725  0.01836022  1
  H  H101  1  0.50000000  0.30547507  0.13944266  1
  H  H102  1  0.50000000  0.30727925  0.26461576  1
  H  H103  1  0.50000000  0.30961218  0.38521771  1
  H  H104  1  0.50000000  0.46948971  0.02097262  1
  H  H105  1  0.50000000  0.47370317  0.13646233  1
  H  H106  1  0.50000000  0.47521578  0.25905592  1
  H  H107  1  0.50000000  0.47609319  0.38315207  1
  H  H108  1  0.50000000  0.50559629  0.46669769  1
  H  H109  1  0.50000000  0.50782101  0.99232962  1
  H  H110  1  0.50000000  0.58206669  0.98740985  1
  H  H111  1  0.50000000  0.56671446  0.46312443  1
  H  H112  1  0.50000000  0.64720487  0.46106598  1
  H  H113  1  0.50000000  0.64415440  0.98729957  1
  H  H114  1  0.50000000  0.72529194  0.98592926  1
  H  H115  1  0.50000000  0.71160282  0.45930439  1
  H  H116  1  0.50000000  0.79385308  0.45883284  1
  H  H117  1  0.50000000  0.79292382  0.98546017  1
