# generated using pymatgen
data_H5C16
_symmetry_space_group_name_H-M   'P 1'
_cell_length_a   10.00000000
_cell_length_b   21.36688000
_cell_length_c   19.76755195
_cell_angle_alpha   90.00000000
_cell_angle_beta   90.00000000
_cell_angle_gamma   90.00000000
_symmetry_Int_Tables_number   1
_chemical_formula_structural   H5C16
_chemical_formula_sum   'H20 C64'
_cell_volume   4223.70910411
_cell_formula_units_Z   4
loop_
 _symmetry_equiv_pos_site_id
 _symmetry_equiv_pos_as_xyz
  1  'x, y, z'
loop_
 _atom_site_type_symbol
 _atom_site_label
 _atom_site_symmetry_multiplicity
 _atom_site_fract_x
 _atom_site_fract_y
 _atom_site_fract_z
 _atom_site_occupancy
  C  C0  1  0.50000000  0.27905968  0.53637902  1
  C  C1  1  0.50000000  0.28258689  0.65840968  1
  C  C2  1  0.50000000  0.28051060  0.78128601  1
  C  C3  1  0.50000000  0.27270783  0.90315004  1
  C  C4  1  0.50000000  0.31405032  0.59535268  1
  C  C5  1  0.50000000  0.31403261  0.72070533  1
  C  C6  1  0.50000000  0.31038062  0.84444820  1
  C  C7  1  0.50000000  0.30175146  0.96522193  1
  C  C8  1  0.50000000  0.38314273  0.59795780  1
  C  C9  1  0.50000000  0.38162579  0.72368792  1
  C  C10  1  0.50000000  0.37809415  0.84881326  1
  C  C11  1  0.50000000  0.36710634  0.96966979  1
  C  C12  1  0.50000000  0.41839085  0.53913129  1
  C  C13  1  0.50000000  0.41534564  0.66181236  1
  C  C14  1  0.50000000  0.41306965  0.78711406  1
  C  C15  1  0.50000000  0.40875278  0.91365290  1
  C  C16  1  0.50000000  0.48890735  0.04408648  1
  C  C17  1  0.50000000  0.49026465  0.16657870  1
  C  C18  1  0.50000000  0.49031219  0.29010373  1
  C  C19  1  0.50000000  0.48926305  0.41336539  1
  C  C20  1  0.50000000  0.48422687  0.53889495  1
  C  C21  1  0.50000000  0.48219468  0.66355351  1
  C  C22  1  0.50000000  0.48021335  0.78945150  1
  C  C23  1  0.50000000  0.47811848  0.91652840  1
  C  C24  1  0.50000000  0.52249824  0.10500884  1
  C  C25  1  0.50000000  0.52250235  0.22824135  1
  C  C26  1  0.50000000  0.52232327  0.35163326  1
  C  C27  1  0.50000000  0.51905862  0.47566823  1
  C  C28  1  0.50000000  0.51666104  0.60153622  1
  C  C29  1  0.50000000  0.51421669  0.72735307  1
  C  C30  1  0.50000000  0.51209073  0.85411179  1
  C  C31  1  0.50000000  0.51477517  0.97942783  1
  C  C32  1  0.50000000  0.58935587  0.10365124  1
  C  C33  1  0.50000000  0.59034742  0.22796192  1
  C  C34  1  0.50000000  0.58984391  0.35237950  1
  C  C35  1  0.50000000  0.58667786  0.47720463  1
  C  C36  1  0.50000000  0.58389049  0.60237333  1
  C  C37  1  0.50000000  0.58148112  0.72766406  1
  C  C38  1  0.50000000  0.58021998  0.85338043  1
  C  C39  1  0.50000000  0.58311755  0.97801168  1
  C  C40  1  0.50000000  0.61892618  0.03973858  1
  C  C41  1  0.50000000  0.62316463  0.16548881  1
  C  C42  1  0.50000000  0.62335127  0.29020694  1
  C  C43  1  0.50000000  0.62130799  0.41539084  1
  C  C44  1  0.50000000  0.61823471  0.54032952  1
  C  C45  1  0.50000000  0.61547918  0.66547031  1
  C  C46  1  0.50000000  0.61349833  0.79076518  1
  C  C47  1  0.50000000  0.61484086  0.91523608  1
  C  C48  1  0.50000000  0.68684831  0.03903944  1
  C  C49  1  0.50000000  0.69083443  0.16479234  1
  C  C50  1  0.50000000  0.69118723  0.29040141  1
  C  C51  1  0.50000000  0.68918605  0.41613693  1
  C  C52  1  0.50000000  0.68606927  0.54125089  1
  C  C53  1  0.50000000  0.68325463  0.66606075  1
  C  C54  1  0.50000000  0.68148742  0.79054512  1
  C  C55  1  0.50000000  0.68289182  0.91461693  1
  C  C56  1  0.50000000  0.72051409  0.10086830  1
  C  C57  1  0.50000000  0.72301373  0.22750828  1
  C  C58  1  0.50000000  0.72194798  0.35384453  1
  C  C59  1  0.50000000  0.71949493  0.47960464  1
  C  C60  1  0.50000000  0.71650442  0.60448547  1
  C  C61  1  0.50000000  0.71420646  0.72873612  1
  C  C62  1  0.50000000  0.71415812  0.85209440  1
  C  C63  1  0.50000000  0.71687776  0.97571066  1
  H  H64  1  0.50000000  0.22782670  0.53981829  1
  H  H65  1  0.50000000  0.23123268  0.65872564  1
  H  H66  1  0.50000000  0.22923683  0.77969406  1
  H  H67  1  0.50000000  0.22167079  0.89799939  1
  H  H68  1  0.50000000  0.77183210  0.09870880  1
  H  H69  1  0.50000000  0.77436912  0.22729124  1
  H  H70  1  0.50000000  0.77328023  0.35478454  1
  H  H71  1  0.50000000  0.77081234  0.48136162  1
  H  H72  1  0.50000000  0.76782784  0.60593670  1
  H  H73  1  0.50000000  0.76553074  0.72968841  1
  H  H74  1  0.50000000  0.76550925  0.85127992  1
  H  H75  1  0.50000000  0.76820287  0.97349708  1
  H  H76  1  0.50000000  0.29925219  0.48555611  1
  H  H77  1  0.50000000  0.27443788  0.01213577  1
  H  H78  1  0.50000000  0.38281738  0.02128238  1
  H  H79  1  0.50000000  0.39352242  0.49098355  1
  H  H80  1  0.50000000  0.43948163  0.05298686  1
  H  H81  1  0.50000000  0.43891498  0.16652993  1
  H  H82  1  0.50000000  0.43898843  0.28995458  1
  H  H83  1  0.50000000  0.43823647  0.40975532  1
