# generated using pymatgen
data_H5C12
_symmetry_space_group_name_H-M   'P 1'
_cell_length_a   10.00000000
_cell_length_b   17.10430000
_cell_length_c   19.76667847
_cell_angle_alpha   90.00000000
_cell_angle_beta   90.00000000
_cell_angle_gamma   90.00000000
_symmetry_Int_Tables_number   1
_chemical_formula_structural   H5C12
_chemical_formula_sum   'H20 C48'
_cell_volume   3380.95198610
_cell_formula_units_Z   4
loop_
 _symmetry_equiv_pos_site_id
 _symmetry_equiv_pos_as_xyz
  1  'x, y, z'
loop_
 _atom_site_type_symbol
 _atom_site_label
 _atom_site_symmetry_multiplicity
 _atom_site_fract_x
 _atom_site_fract_y
 _atom_site_fract_z
 _atom_site_occupancy
  C  C0  1  0.50000000  0.71411983  0.50495001  1
  C  C1  1  0.50000000  0.71043464  0.62693259  1
  C  C2  1  0.50000000  0.71359861  0.75022526  1
  C  C3  1  0.50000000  0.72256087  0.87269658  1
  C  C4  1  0.50000000  0.28781501  0.00585925  1
  C  C5  1  0.50000000  0.27809161  0.13332756  1
  C  C6  1  0.50000000  0.27791748  0.26016646  1
  C  C7  1  0.50000000  0.28328375  0.38675301  1
  C  C8  1  0.50000000  0.29008104  0.51156517  1
  C  C9  1  0.50000000  0.29544782  0.63613775  1
  C  C10  1  0.50000000  0.29936667  0.76033010  1
  C  C11  1  0.50000000  0.29738547  0.88290554  1
  C  C12  1  0.50000000  0.32007585  0.07146098  1
  C  C13  1  0.50000000  0.31669291  0.19684748  1
  C  C14  1  0.50000000  0.31909866  0.32238092  1
  C  C15  1  0.50000000  0.32676350  0.44769582  1
  C  C16  1  0.50000000  0.33265473  0.57271517  1
  C  C17  1  0.50000000  0.33737730  0.69747410  1
  C  C18  1  0.50000000  0.33994864  0.82220290  1
  C  C19  1  0.50000000  0.33415595  0.94616198  1
  C  C20  1  0.50000000  0.40472547  0.07392413  1
  C  C21  1  0.50000000  0.40220506  0.19739819  1
  C  C22  1  0.50000000  0.40426809  0.32098601  1
  C  C23  1  0.50000000  0.41208627  0.44513702  1
  C  C24  1  0.50000000  0.41755441  0.57092828  1
  C  C25  1  0.50000000  0.42204926  0.69672780  1
  C  C26  1  0.50000000  0.42530741  0.82329575  1
  C  C27  1  0.50000000  0.42015904  0.94871979  1
  C  C28  1  0.50000000  0.44974633  0.01422691  1
  C  C29  1  0.50000000  0.44314126  0.13617477  1
  C  C30  1  0.50000000  0.44288746  0.25907697  1
  C  C31  1  0.50000000  0.44722629  0.38214931  1
  C  C32  1  0.50000000  0.45703003  0.50797820  1
  C  C33  1  0.50000000  0.46113291  0.63267368  1
  C  C34  1  0.50000000  0.46456236  0.75843986  1
  C  C35  1  0.50000000  0.46661638  0.88577639  1
  C  C36  1  0.50000000  0.53967283  0.50772234  1
  C  C37  1  0.50000000  0.54468646  0.63062979  1
  C  C38  1  0.50000000  0.54829627  0.75594507  1
  C  C39  1  0.50000000  0.55326068  0.88267489  1
  C  C40  1  0.50000000  0.58418116  0.56645413  1
  C  C41  1  0.50000000  0.58720992  0.69235918  1
  C  C42  1  0.50000000  0.59167269  0.81777451  1
  C  C43  1  0.50000000  0.60430095  0.93903831  1
  C  C44  1  0.50000000  0.67068951  0.56399099  1
  C  C45  1  0.50000000  0.67172721  0.68948408  1
  C  C46  1  0.50000000  0.67620566  0.81348273  1
  C  C47  1  0.50000000  0.68603071  0.93475558  1
  H  H48  1  0.50000000  0.77814263  0.50804644  1
  H  H49  1  0.50000000  0.77457443  0.62679369  1
  H  H50  1  0.50000000  0.77770938  0.74887646  1
  H  H51  1  0.50000000  0.78640222  0.86826480  1
  H  H52  1  0.50000000  0.22404017  -0.00056595  1
  H  H53  1  0.50000000  0.21390821  0.13222724  1
  H  H54  1  0.50000000  0.21374953  0.26122603  1
  H  H55  1  0.50000000  0.21924517  0.39027233  1
  H  H56  1  0.50000000  0.22594797  0.51393095  1
  H  H57  1  0.50000000  0.23139005  0.63807685  1
  H  H58  1  0.50000000  0.23527402  0.76166783  1
  H  H59  1  0.50000000  0.23329201  0.88061220  1
  H  H60  1  0.50000000  0.68839533  0.45432511  1
  H  H61  1  0.50000000  0.51138129  0.02533003  1
  H  H62  1  0.50000000  0.50729591  0.13739036  1
  H  H63  1  0.50000000  0.50699805  0.25806334  1
  H  H64  1  0.50000000  0.51096957  0.37727814  1
  H  H65  1  0.50000000  0.57047806  0.45932373  1
  H  H66  1  0.50000000  0.58302095  0.99027674  1
  H  H67  1  0.50000000  0.72017249  0.98169585  1
