# generated using pymatgen
data_H5C32
_symmetry_space_group_name_H-M   'P 1'
_cell_length_a   10.00000000
_cell_length_b   29.89204000
_cell_length_c   19.76805673
_cell_angle_alpha   90.00000000
_cell_angle_beta   90.00000000
_cell_angle_gamma   90.00000000
_symmetry_Int_Tables_number   1
_chemical_formula_structural   H5C32
_chemical_formula_sum   'H20 C128'
_cell_volume   5909.07542570
_cell_formula_units_Z   4
loop_
 _symmetry_equiv_pos_site_id
 _symmetry_equiv_pos_as_xyz
  1  'x, y, z'
loop_
 _atom_site_type_symbol
 _atom_site_label
 _atom_site_symmetry_multiplicity
 _atom_site_fract_x
 _atom_site_fract_y
 _atom_site_fract_z
 _atom_site_occupancy
  C  C0  1  0.50000000  0.19914086  0.50495611  1
  C  C1  1  0.50000000  0.20151686  0.62703490  1
  C  C2  1  0.50000000  0.20012532  0.74960367  1
  C  C3  1  0.50000000  0.19428691  0.87117786  1
  C  C4  1  0.50000000  0.22397546  0.56412491  1
  C  C5  1  0.50000000  0.22415808  0.68915279  1
  C  C6  1  0.50000000  0.22144096  0.81269883  1
  C  C7  1  0.50000000  0.21494960  0.93327355  1
  C  C8  1  0.50000000  0.27330923  0.56696758  1
  C  C9  1  0.50000000  0.27250195  0.69231522  1
  C  C10  1  0.50000000  0.26987770  0.81722207  1
  C  C11  1  0.50000000  0.26162382  0.93795507  1
  C  C12  1  0.50000000  0.29834490  0.50811260  1
  C  C13  1  0.50000000  0.29659892  0.63053375  1
  C  C14  1  0.50000000  0.29509385  0.75566499  1
  C  C15  1  0.50000000  0.29174065  0.88202626  1
  C  C16  1  0.50000000  0.34810639  0.01122977  1
  C  C17  1  0.50000000  0.34748739  0.13400769  1
  C  C18  1  0.50000000  0.34720815  0.25843156  1
  C  C19  1  0.50000000  0.34735494  0.38229456  1
  C  C20  1  0.50000000  0.34521112  0.50769037  1
  C  C21  1  0.50000000  0.34438906  0.63213612  1
  C  C22  1  0.50000000  0.34314465  0.75782535  1
  C  C23  1  0.50000000  0.34130578  0.88445597  1
  C  C24  1  0.50000000  0.37116951  0.07271617  1
  C  C25  1  0.50000000  0.37004816  0.19624251  1
  C  C26  1  0.50000000  0.37034728  0.32009318  1
  C  C27  1  0.50000000  0.36945983  0.44420627  1
  C  C28  1  0.50000000  0.36886537  0.57012477  1
  C  C29  1  0.50000000  0.36762475  0.69574616  1
  C  C30  1  0.50000000  0.36602510  0.82213108  1
  C  C31  1  0.50000000  0.36738308  0.94699335  1
  C  C32  1  0.50000000  0.41873649  0.07168893  1
  C  C33  1  0.50000000  0.41834956  0.19609214  1
  C  C34  1  0.50000000  0.41836453  0.32055549  1
  C  C35  1  0.50000000  0.41746425  0.44537085  1
  C  C36  1  0.50000000  0.41673150  0.57063403  1
  C  C37  1  0.50000000  0.41560586  0.69595290  1
  C  C38  1  0.50000000  0.41468457  0.82145378  1
  C  C39  1  0.50000000  0.41593262  0.94594441  1
  C  C40  1  0.50000000  0.44079829  0.00821203  1
  C  C41  1  0.50000000  0.44221186  0.13391109  1
  C  C42  1  0.50000000  0.44204082  0.25822272  1
  C  C43  1  0.50000000  0.44157889  0.38307081  1
  C  C44  1  0.50000000  0.44083218  0.50810343  1
  C  C45  1  0.50000000  0.43993876  0.63349528  1
  C  C46  1  0.50000000  0.43899716  0.75896922  1
  C  C47  1  0.50000000  0.43940514  0.88355369  1
  C  C48  1  0.50000000  0.48868768  0.00800089  1
  C  C49  1  0.50000000  0.48980158  0.13348566  1
  C  C50  1  0.50000000  0.48978938  0.25824007  1
  C  C51  1  0.50000000  0.48939616  0.38325431  1
  C  C52  1  0.50000000  0.48864055  0.50829205  1
  C  C53  1  0.50000000  0.48788988  0.63350837  1
  C  C54  1  0.50000000  0.48725153  0.75860087  1
  C  C55  1  0.50000000  0.48757956  0.88325026  1
  C  C56  1  0.50000000  0.51287661  0.07046518  1
  C  C57  1  0.50000000  0.51353805  0.19583929  1
  C  C58  1  0.50000000  0.51329397  0.32082145  1
  C  C59  1  0.50000000  0.51279136  0.44586901  1
  C  C60  1  0.50000000  0.51205832  0.57105365  1
  C  C61  1  0.50000000  0.51145320  0.69614951  1
  C  C62  1  0.50000000  0.51143041  0.82079949  1
  C  C63  1  0.50000000  0.51201698  0.94536428  1
  C  C64  1  0.50000000  0.56067627  0.07042501  1
  C  C65  1  0.50000000  0.56119995  0.19566347  1
  C  C66  1  0.50000000  0.56103752  0.32072979  1
  C  C67  1  0.50000000  0.56058556  0.44579757  1
  C  C68  1  0.50000000  0.55995331  0.57089161  1
  C  C69  1  0.50000000  0.55945144  0.69591222  1
  C  C70  1  0.50000000  0.55950017  0.82065347  1
  C  C71  1  0.50000000  0.55996712  0.94540064  1
  C  C72  1  0.50000000  0.58415252  0.00777233  1
  C  C73  1  0.50000000  0.58464855  0.13292487  1
  C  C74  1  0.50000000  0.58485580  0.25819920  1
  C  C75  1  0.50000000  0.58457451  0.38332003  1
  C  C76  1  0.50000000  0.58407715  0.50843174  1
  C  C77  1  0.50000000  0.58355559  0.63345106  1
  C  C78  1  0.50000000  0.58340852  0.75824193  1
  C  C79  1  0.50000000  0.58365062  0.88292957  1
  C  C80  1  0.50000000  0.63204200  0.00784594  1
  C  C81  1  0.50000000  0.63244596  0.13292636  1
  C  C82  1  0.50000000  0.63261855  0.25810826  1
  C  C83  1  0.50000000  0.63239275  0.38322043  1
  C  C84  1  0.50000000  0.63194232  0.50829170  1
  C  C85  1  0.50000000  0.63151305  0.63327354  1
  C  C86  1  0.50000000  0.63138288  0.75813107  1
  C  C87  1  0.50000000  0.63159995  0.88294569  1
  C  C88  1  0.50000000  0.65600326  0.07031018  1
  C  C89  1  0.50000000  0.65626270  0.19547511  1
  C  C90  1  0.50000000  0.65626134  0.32068308  1
  C  C91  1  0.50000000  0.65595530  0.44580164  1
  C  C92  1  0.50000000  0.65554258  0.57083442  1
  C  C93  1  0.50000000  0.65529086  0.69570806  1
  C  C94  1  0.50000000  0.65532959  0.82048316  1
  C  C95  1  0.50000000  0.65563158  0.94530760  1
  C  C96  1  0.50000000  0.70393559  0.07036217  1
  C  C97  1  0.50000000  0.70417530  0.19546057  1
  C  C98  1  0.50000000  0.70417442  0.32060210  1
  C  C99  1  0.50000000  0.70391541  0.44567950  1
  C  C100  1  0.50000000  0.70354012  0.57068625  1
  C  C101  1  0.50000000  0.70330402  0.69560735  1
  C  C102  1  0.50000000  0.70333076  0.82047915  1
  C  C103  1  0.50000000  0.70359545  0.94536019  1
  C  C104  1  0.50000000  0.72744463  0.00777971  1
  C  C105  1  0.50000000  0.72773920  0.13284784  1
  C  C106  1  0.50000000  0.72786480  0.25802216  1
  C  C107  1  0.50000000  0.72774564  0.38319613  1
  C  C108  1  0.50000000  0.72742548  0.50826183  1
  C  C109  1  0.50000000  0.72713370  0.63318871  1
  C  C110  1  0.50000000  0.72702752  0.75803029  1
  C  C111  1  0.50000000  0.72716772  0.88286170  1
  C  C112  1  0.50000000  0.77582850  0.00774748  1
  C  C113  1  0.50000000  0.77612600  0.13280881  1
  C  C114  1  0.50000000  0.77626001  0.25801152  1
  C  C115  1  0.50000000  0.77614755  0.38322126  1
  C  C116  1  0.50000000  0.77582183  0.50829457  1
  C  C117  1  0.50000000  0.77555269  0.63320454  1
  C  C118  1  0.50000000  0.77543876  0.75801795  1
  C  C119  1  0.50000000  0.77556349  0.88284091  1
  C  C120  1  0.50000000  0.79877478  0.07015865  1
  C  C121  1  0.50000000  0.79897059  0.19535667  1
  C  C122  1  0.50000000  0.79899452  0.32065169  1
  C  C123  1  0.50000000  0.79879131  0.44587573  1
  C  C124  1  0.50000000  0.79851000  0.57084234  1
  C  C125  1  0.50000000  0.79832313  0.69565284  1
  C  C126  1  0.50000000  0.79831241  0.82037989  1
  C  C127  1  0.50000000  0.79851258  0.94519118  1
  H  H128  1  0.50000000  0.16252259  0.50809611  1
  H  H129  1  0.50000000  0.16482143  0.62740494  1
  H  H130  1  0.50000000  0.16347299  0.74788210  1
  H  H131  1  0.50000000  0.15780339  0.86592228  1
  H  H132  1  0.50000000  0.83547139  0.06988726  1
  H  H133  1  0.50000000  0.83566432  0.19527930  1
  H  H134  1  0.50000000  0.83569716  0.32069337  1
  H  H135  1  0.50000000  0.83549771  0.44613494  1
  H  H136  1  0.50000000  0.83521663  0.57099613  1
  H  H137  1  0.50000000  0.83502456  0.69578783  1
  H  H138  1  0.50000000  0.83500571  0.82022554  1
  H  H139  1  0.50000000  0.83521011  0.94491912  1
  H  H140  1  0.50000000  0.21368002  0.45421952  1
  H  H141  1  0.50000000  0.19536864  0.98016188  1
  H  H142  1  0.50000000  0.27214603  0.98988489  1
  H  H143  1  0.50000000  0.28055167  0.46005661  1
  H  H144  1  0.50000000  0.31272945  0.01865152  1
  H  H145  1  0.50000000  0.31077049  0.13306347  1
  H  H146  1  0.50000000  0.31054482  0.25882090  1
  H  H147  1  0.50000000  0.31083954  0.37974267  1
