# generated using pymatgen
data_H13C36
_symmetry_space_group_name_H-M   'P 1'
_cell_length_a   10.00000000
_cell_length_b   25.62946000
_cell_length_c   19.75606402
_cell_angle_alpha   90.00000000
_cell_angle_beta   90.00000000
_cell_angle_gamma   90.00000000
_symmetry_Int_Tables_number   1
_chemical_formula_structural   H13C36
_chemical_formula_sum   'H26 C72'
_cell_volume   5063.37252576
_cell_formula_units_Z   2
loop_
 _symmetry_equiv_pos_site_id
 _symmetry_equiv_pos_as_xyz
  1  'x, y, z'
loop_
 _atom_site_type_symbol
 _atom_site_label
 _atom_site_symmetry_multiplicity
 _atom_site_fract_x
 _atom_site_fract_y
 _atom_site_fract_z
 _atom_site_occupancy
  C  C0  1  0.50000000  0.23283410  0.03663582  1
  C  C1  1  0.50000000  0.22542682  0.16374632  1
  C  C2  1  0.50000000  0.22386239  0.29074406  1
  C  C3  1  0.50000000  0.22651302  0.41793364  1
  C  C4  1  0.50000000  0.23143840  0.54336418  1
  C  C5  1  0.50000000  0.23586110  0.66803561  1
  C  C6  1  0.50000000  0.23950854  0.79191392  1
  C  C7  1  0.50000000  0.23911510  0.91415546  1
  C  C8  1  0.50000000  0.25402292  0.10234276  1
  C  C9  1  0.50000000  0.25043177  0.22773622  1
  C  C10  1  0.50000000  0.25066808  0.35353206  1
  C  C11  1  0.50000000  0.25546222  0.47913092  1
  C  C12  1  0.50000000  0.26023014  0.60437828  1
  C  C13  1  0.50000000  0.26452110  0.72887161  1
  C  C14  1  0.50000000  0.26715846  0.85320827  1
  C  C15  1  0.50000000  0.26392609  0.97712791  1
  C  C16  1  0.50000000  0.31045222  0.10519410  1
  C  C17  1  0.50000000  0.30749908  0.22878427  1
  C  C18  1  0.50000000  0.30751570  0.35237722  1
  C  C19  1  0.50000000  0.31233938  0.47641447  1
  C  C20  1  0.50000000  0.31675943  0.60229366  1
  C  C21  1  0.50000000  0.32100469  0.72762954  1
  C  C22  1  0.50000000  0.32407500  0.85366894  1
  C  C23  1  0.50000000  0.32134308  0.97961406  1
  C  C24  1  0.50000000  0.34074627  0.04544467  1
  C  C25  1  0.50000000  0.33548349  0.16787710  1
  C  C26  1  0.50000000  0.33396999  0.29090003  1
  C  C27  1  0.50000000  0.33593527  0.41365490  1
  C  C28  1  0.50000000  0.34245326  0.53899834  1
  C  C29  1  0.50000000  0.34660385  0.66342594  1
  C  C30  1  0.50000000  0.35022240  0.78879616  1
  C  C31  1  0.50000000  0.35197996  0.91585298  1
  C  C32  1  0.50000000  0.39716563  0.53776464  1
  C  C33  1  0.50000000  0.40234490  0.66055828  1
  C  C34  1  0.50000000  0.40614430  0.78531517  1
  C  C35  1  0.50000000  0.40926753  0.91143118  1
  C  C36  1  0.50000000  0.42768798  0.59604188  1
  C  C37  1  0.50000000  0.43214306  0.72138751  1
  C  C38  1  0.50000000  0.43553882  0.84670667  1
  C  C39  1  0.50000000  0.44285377  0.96818124  1
  C  C40  1  0.50000000  0.48440428  0.59225834  1
  C  C41  1  0.50000000  0.48822675  0.71757638  1
  C  C42  1  0.50000000  0.49178841  0.84239475  1
  C  C43  1  0.50000000  0.49648584  0.96424523  1
  C  C44  1  0.50000000  0.51109954  0.52999089  1
  C  C45  1  0.50000000  0.51416462  0.65306547  1
  C  C46  1  0.50000000  0.51782470  0.77796663  1
  C  C47  1  0.50000000  0.52266208  0.90218816  1
  C  C48  1  0.50000000  0.56508979  0.52675733  1
  C  C49  1  0.50000000  0.57010662  0.64967980  1
  C  C50  1  0.50000000  0.57412941  0.77460317  1
  C  C51  1  0.50000000  0.57911923  0.89936981  1
  C  C52  1  0.50000000  0.59595579  0.58556949  1
  C  C53  1  0.50000000  0.59988161  0.71104917  1
  C  C54  1  0.50000000  0.60457317  0.83549903  1
  C  C55  1  0.50000000  0.60976659  0.95845227  1
  C  C56  1  0.50000000  0.65284667  0.58215795  1
  C  C57  1  0.50000000  0.65603231  0.70792465  1
  C  C58  1  0.50000000  0.66047618  0.83266999  1
  C  C59  1  0.50000000  0.66381617  0.95556785  1
  C  C60  1  0.50000000  0.68014290  0.52025762  1
  C  C61  1  0.50000000  0.68194640  0.64360901  1
  C  C62  1  0.50000000  0.68573571  0.76822183  1
  C  C63  1  0.50000000  0.69048929  0.89365973  1
  C  C64  1  0.50000000  0.73487842  0.51792710  1
  C  C65  1  0.50000000  0.73817613  0.64102249  1
  C  C66  1  0.50000000  0.74224256  0.76536157  1
  C  C67  1  0.50000000  0.74789208  0.89088749  1
  C  C68  1  0.50000000  0.76374114  0.57726488  1
  C  C69  1  0.50000000  0.76682747  0.70175483  1
  C  C70  1  0.50000000  0.77126501  0.82570515  1
  C  C71  1  0.50000000  0.77887308  0.94830244  1
  H  H72  1  0.50000000  0.19030354  0.02995092  1
  H  H73  1  0.50000000  0.18265458  0.16163905  1
  H  H74  1  0.50000000  0.18103238  0.29091774  1
  H  H75  1  0.50000000  0.18375063  0.42133003  1
  H  H76  1  0.50000000  0.18869168  0.54635844  1
  H  H77  1  0.50000000  0.19311569  0.67070707  1
  H  H78  1  0.50000000  0.19673950  0.79372003  1
  H  H79  1  0.50000000  0.19636109  0.91208470  1
  H  H80  1  0.50000000  0.80651712  0.57608900  1
  H  H81  1  0.50000000  0.80956745  0.69931846  1
  H  H82  1  0.50000000  0.81399680  0.82248183  1
  H  H83  1  0.50000000  0.82145384  0.94363237  1
  H  H84  1  0.50000000  0.38181238  0.05720879  1
  H  H85  1  0.50000000  0.37826359  0.16991838  1
  H  H86  1  0.50000000  0.37679534  0.29098960  1
  H  H87  1  0.50000000  0.37844233  0.40870860  1
  H  H88  1  0.50000000  0.41672721  0.48886448  1
  H  H89  1  0.50000000  0.42809713  0.01908171  1
  H  H90  1  0.50000000  0.51827035  0.01178371  1
  H  H91  1  0.50000000  0.48954064  0.48224813  1
  H  H92  1  0.50000000  0.58341502  0.47678355  1
  H  H93  1  0.50000000  0.59130966  0.00827977  1
  H  H94  1  0.50000000  0.68561865  0.00313645  1
  H  H95  1  0.50000000  0.65886378  0.47228325  1
  H  H96  1  0.50000000  0.75469033  0.46874022  1
  H  H97  1  0.50000000  0.76290904  -0.00038675  1
