# generated using pymatgen
data_H3C20
_symmetry_space_group_name_H-M   'P 1'
_cell_length_a   10.00000000
_cell_length_b   25.62946000
_cell_length_c   19.75794318
_cell_angle_alpha   90.00000000
_cell_angle_beta   90.00000000
_cell_angle_gamma   90.00000000
_symmetry_Int_Tables_number   1
_chemical_formula_structural   H3C20
_chemical_formula_sum   'H18 C120'
_cell_volume   5063.85414349
_cell_formula_units_Z   6
loop_
 _symmetry_equiv_pos_site_id
 _symmetry_equiv_pos_as_xyz
  1  'x, y, z'
loop_
 _atom_site_type_symbol
 _atom_site_label
 _atom_site_symmetry_multiplicity
 _atom_site_fract_x
 _atom_site_fract_y
 _atom_site_fract_z
 _atom_site_occupancy
  C  C0  1  0.50000026  0.82168824  0.51958042  1
  C  C1  1  0.49999927  0.80635182  0.63566683  1
  C  C2  1  0.49999833  0.80559668  0.75830520  1
  C  C3  1  0.49999866  0.80587296  0.88260763  1
  C  C4  1  0.50000014  0.19385469  0.00691082  1
  C  C5  1  0.50000055  0.19364605  0.13198294  1
  C  C6  1  0.50000060  0.19352384  0.25715110  1
  C  C7  1  0.49999984  0.19355348  0.38231583  1
  C  C8  1  0.49999891  0.19372339  0.50735709  1
  C  C9  1  0.50000031  0.19392986  0.63229155  1
  C  C10  1  0.50000151  0.19404527  0.75713876  1
  C  C11  1  0.50000105  0.19402003  0.88197737  1
  C  C12  1  0.50000047  0.22034311  0.06949083  1
  C  C13  1  0.50000057  0.22013651  0.19459216  1
  C  C14  1  0.50000019  0.22008724  0.31972385  1
  C  C15  1  0.49999936  0.22023669  0.44478874  1
  C  C16  1  0.49999935  0.22044830  0.56976041  1
  C  C17  1  0.50000120  0.22063886  0.69466865  1
  C  C18  1  0.50000153  0.22070008  0.81955001  1
  C  C19  1  0.50000066  0.22057515  0.94446709  1
  C  C20  1  0.50000057  0.27675307  0.06945818  1
  C  C21  1  0.50000021  0.27655330  0.19454541  1
  C  C22  1  0.49999991  0.27651786  0.31965522  1
  C  C23  1  0.49999963  0.27667572  0.44471831  1
  C  C24  1  0.49999980  0.27688607  0.56969695  1
  C  C25  1  0.50000086  0.27707094  0.69459640  1
  C  C26  1  0.50000113  0.27712439  0.81949008  1
  C  C27  1  0.50000075  0.27698239  0.94442252  1
  C  C28  1  0.50000066  0.30447144  0.00695453  1
  C  C29  1  0.50000031  0.30424423  0.13200718  1
  C  C30  1  0.49999990  0.30413121  0.25708237  1
  C  C31  1  0.49999981  0.30422005  0.38214361  1
  C  C32  1  0.49999991  0.30443425  0.50716188  1
  C  C33  1  0.50000032  0.30466207  0.63209108  1
  C  C34  1  0.50000079  0.30477747  0.75699872  1
  C  C35  1  0.50000074  0.30471310  0.88195388  1
  C  C36  1  0.50000044  0.36036060  0.00684698  1
  C  C37  1  0.50000012  0.36012791  0.13188913  1
  C  C38  1  0.49999982  0.36003618  0.25699125  1
  C  C39  1  0.49999993  0.36014304  0.38208634  1
  C  C40  1  0.50000028  0.36037839  0.50710649  1
  C  C41  1  0.50000026  0.36061511  0.63200670  1
  C  C42  1  0.50000021  0.36071407  0.75688527  1
  C  C43  1  0.50000027  0.36062823  0.88184135  1
  C  C44  1  0.50000016  0.38792570  0.06936604  1
  C  C45  1  0.49999991  0.38772925  0.19441900  1
  C  C46  1  0.49999987  0.38776781  0.31950646  1
  C  C47  1  0.50000008  0.38798083  0.44454334  1
  C  C48  1  0.50000029  0.38828696  0.56950533  1
  C  C49  1  0.50000004  0.38847690  0.69440494  1
  C  C50  1  0.50000000  0.38844391  0.81934349  1
  C  C51  1  0.50000014  0.38822121  0.94435452  1
  C  C52  1  0.49999988  0.44371547  0.06925435  1
  C  C53  1  0.50000001  0.44348169  0.19429765  1
  C  C54  1  0.50000003  0.44354557  0.31944907  1
  C  C55  1  0.49999997  0.44379922  0.44450967  1
  C  C56  1  0.49999990  0.44415429  0.56945828  1
  C  C57  1  0.49999990  0.44436952  0.69431028  1
  C  C58  1  0.49999986  0.44430739  0.81922150  1
  C  C59  1  0.49999980  0.44402447  0.94423967  1
  C  C60  1  0.49999975  0.47162399  0.00678933  1
  C  C61  1  0.49999995  0.47128676  0.13177576  1
  C  C62  1  0.50000010  0.47108451  0.25681099  1
  C  C63  1  0.50000004  0.47138063  0.38195060  1
  C  C64  1  0.49999984  0.47177456  0.50692075  1
  C  C65  1  0.49999984  0.47216444  0.63180483  1
  C  C66  1  0.49999987  0.47223255  0.75671069  1
  C  C67  1  0.49999981  0.47195566  0.88177495  1
  C  C68  1  0.49999993  0.52742019  0.00675875  1
  C  C69  1  0.50000012  0.52702746  0.13168934  1
  C  C70  1  0.50000032  0.52672705  0.25669079  1
  C  C71  1  0.50000028  0.52712614  0.38189432  1
  C  C72  1  0.50000003  0.52761711  0.50689949  1
  C  C73  1  0.49999991  0.52807779  0.63167082  1
  C  C74  1  0.49999994  0.52815052  0.75657338  1
  C  C75  1  0.49999994  0.52780560  0.88175853  1
  C  C76  1  0.50000015  0.55492049  0.06927685  1
  C  C77  1  0.50000032  0.55446835  0.19429066  1
  C  C78  1  0.50000044  0.55437503  0.31911686  1
  C  C79  1  0.50000039  0.55511081  0.44434550  1
  C  C80  1  0.50000013  0.55581349  0.56913707  1
  C  C81  1  0.50000000  0.55610178  0.69398109  1
  C  C82  1  0.50000001  0.55571602  0.81928037  1
  C  C83  1  0.50000009  0.55545537  0.94433144  1
  C  C84  1  0.50000027  0.61080140  0.06937524  1
  C  C85  1  0.50000026  0.61019457  0.19429857  1
  C  C86  1  0.50000045  0.60998998  0.31883413  1
  C  C87  1  0.50000070  0.61095652  0.44414078  1
  C  C88  1  0.50000061  0.61188723  0.56888190  1
  C  C89  1  0.50000010  0.61213732  0.69372889  1
  C  C90  1  0.50000002  0.61157242  0.81942803  1
  C  C91  1  0.50000028  0.61134327  0.94448231  1
  C  C92  1  0.50000024  0.63895008  0.00702395  1
  C  C93  1  0.50000009  0.63792771  0.13196458  1
  C  C94  1  0.50000014  0.63772541  0.25654249  1
  C  C95  1  0.50000047  0.63750249  0.38111424  1
  C  C96  1  0.50000083  0.63946865  0.50653127  1
  C  C97  1  0.50000035  0.64024432  0.63107004  1
  C  C98  1  0.49999988  0.63924832  0.75673887  1
  C  C99  1  0.50000003  0.63920317  0.88198554  1
  C  C100  1  0.49999976  0.69520095  0.00782063  1
  C  C101  1  0.49999940  0.69401615  0.13235895  1
  C  C102  1  0.49999944  0.69400645  0.25644401  1
  C  C103  1  0.49999995  0.69334987  0.38048249  1
  C  C104  1  0.50000066  0.69594872  0.50569716  1
  C  C105  1  0.50000011  0.69666029  0.63026042  1
  C  C106  1  0.49999931  0.69501452  0.75661673  1
  C  C107  1  0.49999952  0.69526731  0.88214590  1
  C  C108  1  0.49999914  0.72092925  0.07009848  1
  C  C109  1  0.49999899  0.72082031  0.19432136  1
  C  C110  1  0.49999936  0.72043001  0.31871422  1
  C  C111  1  0.50000008  0.72028639  0.44234960  1
  C  C112  1  0.50000046  0.72539950  0.56796961  1
  C  C113  1  0.49999919  0.72266873  0.69452411  1
  C  C114  1  0.49999893  0.72274178  0.81950503  1
  C  C115  1  0.49999951  0.72344677  0.94438085  1
  C  C116  1  0.50000011  0.78335643  0.57017935  1
  C  C117  1  0.49999862  0.77869628  0.69614307  1
  C  C118  1  0.49999835  0.77882846  0.81970251  1
  C  C119  1  0.49999918  0.77898807  0.94260841  1
  H  H120  1  0.50000005  0.86232127  0.53707229  1
  H  H121  1  0.49999909  0.84907774  0.63823709  1
  H  H122  1  0.49999840  0.84839069  0.75783292  1
  H  H123  1  0.49999870  0.84863903  0.88198603  1
  H  H124  1  0.49999971  0.15106367  0.00673049  1
  H  H125  1  0.50000054  0.15086018  0.13184508  1
  H  H126  1  0.50000065  0.15074067  0.25709512  1
  H  H127  1  0.50000003  0.15076714  0.38244511  1
  H  H128  1  0.49999886  0.15093925  0.50762241  1
  H  H129  1  0.50000049  0.15115164  0.63257768  1
  H  H130  1  0.50000140  0.15125598  0.75727055  1
  H  H131  1  0.50000102  0.15123302  0.88195603  1
  H  H132  1  0.50000044  0.81786101  0.46487055  1
  H  H133  1  0.49999851  0.76351521  0.07242560  1
  H  H134  1  0.49999852  0.76361019  0.19443704  1
  H  H135  1  0.49999910  0.76319835  0.31879781  1
  H  H136  1  0.49999959  0.76221242  0.43884559  1
  H  H137  1  0.49999965  0.80116810  0.98981961  1
