# generated using pymatgen
data_H7C20
_symmetry_space_group_name_H-M   'P 1'
_cell_length_a   10.00000000
_cell_length_b   25.62946000
_cell_length_c   19.74633684
_cell_angle_alpha   90.00000000
_cell_angle_beta   90.00000000
_cell_angle_gamma   90.00000000
_symmetry_Int_Tables_number   1
_chemical_formula_structural   H7C20
_chemical_formula_sum   'H28 C80'
_cell_volume   5060.87950213
_cell_formula_units_Z   4
loop_
 _symmetry_equiv_pos_site_id
 _symmetry_equiv_pos_as_xyz
  1  'x, y, z'
loop_
 _atom_site_type_symbol
 _atom_site_label
 _atom_site_symmetry_multiplicity
 _atom_site_fract_x
 _atom_site_fract_y
 _atom_site_fract_z
 _atom_site_occupancy
  C  C0  1  0.50000000  0.81330466  0.53683702  1
  C  C1  1  0.50000000  0.80973746  0.65925836  1
  C  C2  1  0.50000000  0.81039269  0.78327910  1
  C  C3  1  0.50000000  0.81223567  0.90809437  1
  C  C4  1  0.50000000  0.18675022  0.03791493  1
  C  C5  1  0.50000000  0.18022175  0.16633989  1
  C  C6  1  0.50000000  0.18167116  0.29382782  1
  C  C7  1  0.50000000  0.18694535  0.42020442  1
  C  C8  1  0.50000000  0.19220019  0.54443893  1
  C  C9  1  0.50000000  0.19516063  0.66854553  1
  C  C10  1  0.50000000  0.19667976  0.79222594  1
  C  C11  1  0.50000000  0.19415276  0.91451435  1
  C  C12  1  0.50000000  0.20783158  0.10398228  1
  C  C13  1  0.50000000  0.20656022  0.22978628  1
  C  C14  1  0.50000000  0.21014510  0.35550155  1
  C  C15  1  0.50000000  0.21659805  0.48068876  1
  C  C16  1  0.50000000  0.22055092  0.60561352  1
  C  C17  1  0.50000000  0.22288918  0.72996968  1
  C  C18  1  0.50000000  0.22325736  0.85424450  1
  C  C19  1  0.50000000  0.21797206  0.97823925  1
  C  C20  1  0.50000000  0.26422286  0.10641176  1
  C  C21  1  0.50000000  0.26363535  0.22982127  1
  C  C22  1  0.50000000  0.26704085  0.35354453  1
  C  C23  1  0.50000000  0.27359198  0.47787215  1
  C  C24  1  0.50000000  0.27715772  0.60417332  1
  C  C25  1  0.50000000  0.27935890  0.72971368  1
  C  C26  1  0.50000000  0.28006474  0.85571722  1
  C  C27  1  0.50000000  0.27530753  0.98119138  1
  C  C28  1  0.50000000  0.29440126  0.04688737  1
  C  C29  1  0.50000000  0.29037496  0.16824195  1
  C  C30  1  0.50000000  0.29178486  0.29089593  1
  C  C31  1  0.50000000  0.29649719  0.41450480  1
  C  C32  1  0.50000000  0.30370150  0.54110138  1
  C  C33  1  0.50000000  0.30610944  0.66614964  1
  C  C34  1  0.50000000  0.30744996  0.79170555  1
  C  C35  1  0.50000000  0.30683121  0.91852101  1
  C  C36  1  0.50000000  0.35866376  0.54160057  1
  C  C37  1  0.50000000  0.36196295  0.66492909  1
  C  C38  1  0.50000000  0.36342388  0.79002867  1
  C  C39  1  0.50000000  0.36402364  0.91613449  1
  C  C40  1  0.50000000  0.38844286  0.60103082  1
  C  C41  1  0.50000000  0.39063687  0.72688151  1
  C  C42  1  0.50000000  0.39154767  0.85241132  1
  C  C43  1  0.50000000  0.39645199  0.97403753  1
  C  C44  1  0.50000000  0.44543158  0.59975768  1
  C  C45  1  0.50000000  0.44675740  0.72535986  1
  C  C46  1  0.50000000  0.44779279  0.85023591  1
  C  C47  1  0.50000000  0.44997596  0.97218642  1
  C  C48  1  0.50000000  0.47397196  0.53875489  1
  C  C49  1  0.50000000  0.47402766  0.66185356  1
  C  C50  1  0.50000000  0.47521460  0.78687878  1
  C  C51  1  0.50000000  0.47736755  0.91111251  1
  C  C52  1  0.50000000  0.52802593  0.53795167  1
  C  C53  1  0.50000000  0.53014929  0.66102272  1
  C  C54  1  0.50000000  0.53155460  0.78599205  1
  C  C55  1  0.50000000  0.53362256  0.91081540  1
  C  C56  1  0.50000000  0.55756481  0.59814120  1
  C  C57  1  0.50000000  0.55881611  0.72345313  1
  C  C58  1  0.50000000  0.56061307  0.84810997  1
  C  C59  1  0.50000000  0.56246776  0.97151986  1
  C  C60  1  0.50000000  0.61438765  0.59747914  1
  C  C61  1  0.50000000  0.61509276  0.72295063  1
  C  C62  1  0.50000000  0.61647742  0.84787140  1
  C  C63  1  0.50000000  0.61636654  0.97117625  1
  C  C64  1  0.50000000  0.64303221  0.53662158  1
  C  C65  1  0.50000000  0.64267067  0.65977050  1
  C  C66  1  0.50000000  0.64358105  0.78466526  1
  C  C67  1  0.50000000  0.64466951  0.91028104  1
  C  C68  1  0.50000000  0.69721853  0.53621716  1
  C  C69  1  0.50000000  0.69879574  0.65918703  1
  C  C70  1  0.50000000  0.69966617  0.78428519  1
  C  C71  1  0.50000000  0.70140895  0.91013551  1
  C  C72  1  0.50000000  0.72639607  0.59630434  1
  C  C73  1  0.50000000  0.72668131  0.72201445  1
  C  C74  1  0.50000000  0.72806445  0.84689880  1
  C  C75  1  0.50000000  0.73091096  0.97031096  1
  C  C76  1  0.50000000  0.78388844  0.59561813  1
  C  C77  1  0.50000000  0.78318087  0.72140747  1
  C  C78  1  0.50000000  0.78428802  0.84593005  1
  C  C79  1  0.50000000  0.78561733  0.96924120  1
  H  H80  1  0.50000000  0.85595957  0.54046468  1
  H  H81  1  0.50000000  0.85253516  0.65960275  1
  H  H82  1  0.50000000  0.85317565  0.78255818  1
  H  H83  1  0.50000000  0.85501067  0.90675904  1
  H  H84  1  0.50000000  0.14426971  0.03094810  1
  H  H85  1  0.50000000  0.13736212  0.16571869  1
  H  H86  1  0.50000000  0.13886761  0.29615377  1
  H  H87  1  0.50000000  0.14423298  0.42447702  1
  H  H88  1  0.50000000  0.14946411  0.54699528  1
  H  H89  1  0.50000000  0.15235970  0.66996315  1
  H  H90  1  0.50000000  0.15389093  0.79260436  1
  H  H91  1  0.50000000  0.15140629  0.91088649  1
  H  H92  1  0.50000000  0.79635450  0.48604851  1
  H  H93  1  0.50000000  0.33522517  0.05916152  1
  H  H94  1  0.50000000  0.33321398  0.16861887  1
  H  H95  1  0.50000000  0.33455521  0.28834659  1
  H  H96  1  0.50000000  0.33901384  0.40891302  1
  H  H97  1  0.50000000  0.37884427  0.49299134  1
  H  H98  1  0.50000000  0.38128510  0.02463307  1
  H  H99  1  0.50000000  0.47049871  0.02065252  1
  H  H100  1  0.50000000  0.45375138  0.48999206  1
  H  H101  1  0.50000000  0.54761273  0.48875558  1
  H  H102  1  0.50000000  0.54261268  0.02044812  1
  H  H103  1  0.50000000  0.63674279  0.01976265  1
  H  H104  1  0.50000000  0.62277628  0.48786973  1
  H  H105  1  0.50000000  0.71729677  0.48733567  1
  H  H106  1  0.50000000  0.71134663  0.01950096  1
  H  H107  1  0.50000000  0.80717730  0.01721236  1
