# generated using pymatgen
data_H13C44
_symmetry_space_group_name_H-M   'P 1'
_cell_length_a   10.00000000
_cell_length_b   25.62946000
_cell_length_c   19.84281884
_cell_angle_alpha   90.00000000
_cell_angle_beta   90.00000000
_cell_angle_gamma   90.00000000
_symmetry_Int_Tables_number   1
_chemical_formula_structural   H13C44
_chemical_formula_sum   'H26 C88'
_cell_volume   5085.60731713
_cell_formula_units_Z   2
loop_
 _symmetry_equiv_pos_site_id
 _symmetry_equiv_pos_as_xyz
  1  'x, y, z'
loop_
 _atom_site_type_symbol
 _atom_site_label
 _atom_site_symmetry_multiplicity
 _atom_site_fract_x
 _atom_site_fract_y
 _atom_site_fract_z
 _atom_site_occupancy
  C  C0  1  0.50000000  0.80699307  0.49629177  1
  C  C1  1  0.50000000  0.80641810  0.61839208  1
  C  C2  1  0.50000000  0.81001111  0.74162483  1
  C  C3  1  0.50000000  0.81423157  0.86576261  1
  C  C4  1  0.50000000  0.17649221  0.52841406  1
  C  C5  1  0.50000000  0.19347353  0.64327588  1
  C  C6  1  0.50000000  0.19530503  0.76454778  1
  C  C7  1  0.50000000  0.19479808  0.88731569  1
  C  C8  1  0.50000000  0.21555655  0.57765358  1
  C  C9  1  0.50000000  0.22192111  0.70271489  1
  C  C10  1  0.50000000  0.22234632  0.82512188  1
  C  C11  1  0.50000000  0.22153879  0.94680760  1
  C  C12  1  0.50000000  0.27720693  0.07362654  1
  C  C13  1  0.50000000  0.27497871  0.19872843  1
  C  C14  1  0.50000000  0.27536350  0.32401326  1
  C  C15  1  0.50000000  0.27663968  0.44817313  1
  C  C16  1  0.50000000  0.27343492  0.57424128  1
  C  C17  1  0.50000000  0.27791226  0.70048428  1
  C  C18  1  0.50000000  0.27851653  0.82464210  1
  C  C19  1  0.50000000  0.27708874  0.94841879  1
  C  C20  1  0.50000000  0.30413404  0.01204900  1
  C  C21  1  0.50000000  0.30225674  0.13703318  1
  C  C22  1  0.50000000  0.30134359  0.26120985  1
  C  C23  1  0.50000000  0.30268429  0.38562395  1
  C  C24  1  0.50000000  0.30171684  0.51102336  1
  C  C25  1  0.50000000  0.30290302  0.63581436  1
  C  C26  1  0.50000000  0.30619265  0.76201746  1
  C  C27  1  0.50000000  0.30600615  0.88691962  1
  C  C28  1  0.50000000  0.36039295  0.01149926  1
  C  C29  1  0.50000000  0.35831087  0.13726114  1
  C  C30  1  0.50000000  0.35789120  0.26123510  1
  C  C31  1  0.50000000  0.35866326  0.38570960  1
  C  C32  1  0.50000000  0.35826579  0.51113804  1
  C  C33  1  0.50000000  0.35947286  0.63601577  1
  C  C34  1  0.50000000  0.36233793  0.76191623  1
  C  C35  1  0.50000000  0.36240410  0.88674835  1
  C  C36  1  0.50000000  0.38567211  0.07516510  1
  C  C37  1  0.50000000  0.38573837  0.19942986  1
  C  C38  1  0.50000000  0.38552581  0.32330537  1
  C  C39  1  0.50000000  0.38571057  0.44832486  1
  C  C40  1  0.50000000  0.38657357  0.57334771  1
  C  C41  1  0.50000000  0.38849566  0.69833705  1
  C  C42  1  0.50000000  0.39059076  0.82421089  1
  C  C43  1  0.50000000  0.38956372  0.94927224  1
  C  C44  1  0.50000000  0.44129264  0.07611022  1
  C  C45  1  0.50000000  0.44226458  0.19963601  1
  C  C46  1  0.50000000  0.44161216  0.32310200  1
  C  C47  1  0.50000000  0.44178904  0.44709266  1
  C  C48  1  0.50000000  0.44254299  0.57290624  1
  C  C49  1  0.50000000  0.44464050  0.69797491  1
  C  C50  1  0.50000000  0.44729712  0.82419886  1
  C  C51  1  0.50000000  0.44648305  0.95009007  1
  C  C52  1  0.50000000  0.46845657  0.01456460  1
  C  C53  1  0.50000000  0.46859192  0.13739439  1
  C  C54  1  0.50000000  0.46873282  0.26176338  1
  C  C55  1  0.50000000  0.46783510  0.38561536  1
  C  C56  1  0.50000000  0.46986563  0.51055988  1
  C  C57  1  0.50000000  0.47145978  0.63451775  1
  C  C58  1  0.50000000  0.47380458  0.75961220  1
  C  C59  1  0.50000000  0.47612016  0.88611517  1
  C  C60  1  0.50000000  0.52420897  0.51065368  1
  C  C61  1  0.50000000  0.52729597  0.63264333  1
  C  C62  1  0.50000000  0.53001548  0.75667461  1
  C  C63  1  0.50000000  0.53332006  0.88190271  1
  C  C64  1  0.50000000  0.55370389  0.56918805  1
  C  C65  1  0.50000000  0.55669730  0.69341679  1
  C  C66  1  0.50000000  0.55968237  0.81770401  1
  C  C67  1  0.50000000  0.56737610  0.93812400  1
  C  C68  1  0.50000000  0.61029174  0.56547614  1
  C  C69  1  0.50000000  0.61292361  0.68993281  1
  C  C70  1  0.50000000  0.61613277  0.81380504  1
  C  C71  1  0.50000000  0.62088356  0.93461650  1
  C  C72  1  0.50000000  0.63723831  0.50362205  1
  C  C73  1  0.50000000  0.63956529  0.62610738  1
  C  C74  1  0.50000000  0.64237761  0.75002725  1
  C  C75  1  0.50000000  0.64719029  0.87322168  1
  C  C76  1  0.50000000  0.69127219  0.50070873  1
  C  C77  1  0.50000000  0.69552208  0.62295744  1
  C  C78  1  0.50000000  0.69875686  0.74707554  1
  C  C79  1  0.50000000  0.70377693  0.87120901  1
  C  C80  1  0.50000000  0.72170505  0.55936262  1
  C  C81  1  0.50000000  0.72470676  0.68425252  1
  C  C82  1  0.50000000  0.72905695  0.80769081  1
  C  C83  1  0.50000000  0.73424126  0.93026474  1
  C  C84  1  0.50000000  0.77914149  0.55612590  1
  C  C85  1  0.50000000  0.78124812  0.68127172  1
  C  C86  1  0.50000000  0.78522065  0.80478565  1
  C  C87  1  0.50000000  0.78885468  0.92744361  1
  H  H88  1  0.50000000  0.84974359  0.49751834  1
  H  H89  1  0.50000000  0.84921166  0.61719522  1
  H  H90  1  0.50000000  0.85277376  0.73929686  1
  H  H91  1  0.50000000  0.85693517  0.86328706  1
  H  H92  1  0.50000000  0.13616738  0.54695960  1
  H  H93  1  0.50000000  0.15082100  0.64717135  1
  H  H94  1  0.50000000  0.15254349  0.76452601  1
  H  H95  1  0.50000000  0.15203714  0.88629069  1
  H  H96  1  0.50000000  0.78864488  0.44655991  1
  H  H97  1  0.50000000  0.17950693  0.47392264  1
  H  H98  1  0.50000000  0.19952900  0.99392613  1
  H  H99  1  0.50000000  0.23457254  0.07434340  1
  H  H100  1  0.50000000  0.23217748  0.19807500  1
  H  H101  1  0.50000000  0.23256118  0.32488713  1
  H  H102  1  0.50000000  0.23465479  0.44536084  1
  H  H103  1  0.50000000  0.50961685  0.02367188  1
  H  H104  1  0.50000000  0.51141792  0.13693363  1
  H  H105  1  0.50000000  0.51150682  0.26231578  1
  H  H106  1  0.50000000  0.51046105  0.38324420  1
  H  H107  1  0.50000000  0.54454003  0.46260057  1
  H  H108  1  0.50000000  0.55381197  0.98908628  1
  H  H109  1  0.50000000  0.64231259  0.98219233  1
  H  H110  1  0.50000000  0.61593563  0.45591666  1
  H  H111  1  0.50000000  0.71008747  0.45121968  1
  H  H112  1  0.50000000  0.71563749  0.97978094  1
  H  H113  1  0.50000000  0.81136868  0.97440235  1
