# generated using pymatgen
data_H5C32
_symmetry_space_group_name_H-M   'P 1'
_cell_length_a   10.00000000
_cell_length_b   29.89204000
_cell_length_c   19.78069070
_cell_angle_alpha   90.00000000
_cell_angle_beta   90.00000000
_cell_angle_gamma   90.00000000
_symmetry_Int_Tables_number   1
_chemical_formula_structural   H5C32
_chemical_formula_sum   'H20 C128'
_cell_volume   5912.85197706
_cell_formula_units_Z   4
loop_
 _symmetry_equiv_pos_site_id
 _symmetry_equiv_pos_as_xyz
  1  'x, y, z'
loop_
 _atom_site_type_symbol
 _atom_site_label
 _atom_site_symmetry_multiplicity
 _atom_site_fract_x
 _atom_site_fract_y
 _atom_site_fract_z
 _atom_site_occupancy
  C  C0  1  0.50000000  0.18811075  0.52017465  1
  C  C1  1  0.50000000  0.20140397  0.63605098  1
  C  C2  1  0.50000000  0.20212510  0.75846514  1
  C  C3  1  0.50000000  0.20176545  0.88261816  1
  C  C4  1  0.50000000  0.22103133  0.57059726  1
  C  C5  1  0.50000000  0.22517523  0.69638247  1
  C  C6  1  0.50000000  0.22501896  0.81980924  1
  C  C7  1  0.50000000  0.22478102  0.94255798  1
  C  C8  1  0.50000000  0.27427174  0.07009127  1
  C  C9  1  0.50000000  0.27425904  0.19442905  1
  C  C10  1  0.50000000  0.27462085  0.31903061  1
  C  C11  1  0.50000000  0.27492609  0.44279135  1
  C  C12  1  0.50000000  0.27068280  0.56837850  1
  C  C13  1  0.50000000  0.27317976  0.69481184  1
  C  C14  1  0.50000000  0.27309143  0.81968546  1
  C  C15  1  0.50000000  0.27241391  0.94446179  1
  C  C16  1  0.50000000  0.29645762  0.00792919  1
  C  C17  1  0.50000000  0.29723414  0.13244809  1
  C  C18  1  0.50000000  0.29718541  0.25662902  1
  C  C19  1  0.50000000  0.29785185  0.38080356  1
  C  C20  1  0.50000000  0.29583582  0.50605816  1
  C  C21  1  0.50000000  0.29538497  0.63060466  1
  C  C22  1  0.50000000  0.29688953  0.75686646  1
  C  C23  1  0.50000000  0.29661409  0.88230824  1
  C  C24  1  0.50000000  0.34463606  0.00715249  1
  C  C25  1  0.50000000  0.34536627  0.13211686  1
  C  C26  1  0.50000000  0.34548014  0.25678928  1
  C  C27  1  0.50000000  0.34573187  0.38148299  1
  C  C28  1  0.50000000  0.34424161  0.50698591  1
  C  C29  1  0.50000000  0.34379648  0.63144884  1
  C  C30  1  0.50000000  0.34470904  0.75703362  1
  C  C31  1  0.50000000  0.34465296  0.88217319  1
  C  C32  1  0.50000000  0.36867875  0.06957346  1
  C  C33  1  0.50000000  0.36907560  0.19454325  1
  C  C34  1  0.50000000  0.36925039  0.31913882  1
  C  C35  1  0.50000000  0.36853352  0.44453500  1
  C  C36  1  0.50000000  0.36804567  0.56926073  1
  C  C37  1  0.50000000  0.36795414  0.69408410  1
  C  C38  1  0.50000000  0.36841742  0.81969847  1
  C  C39  1  0.50000000  0.36842695  0.94471097  1
  C  C40  1  0.50000000  0.41658266  0.06954437  1
  C  C41  1  0.50000000  0.41685448  0.19459681  1
  C  C42  1  0.50000000  0.41693228  0.31948426  1
  C  C43  1  0.50000000  0.41644188  0.44474800  1
  C  C44  1  0.50000000  0.41611433  0.56958205  1
  C  C45  1  0.50000000  0.41599459  0.69439533  1
  C  C46  1  0.50000000  0.41631557  0.81965563  1
  C  C47  1  0.50000000  0.41633731  0.94462927  1
  C  C48  1  0.50000000  0.44027133  0.00708453  1
  C  C49  1  0.50000000  0.44039275  0.13202523  1
  C  C50  1  0.50000000  0.44056430  0.25706376  1
  C  C51  1  0.50000000  0.44034373  0.38226962  1
  C  C52  1  0.50000000  0.44015657  0.50728390  1
  C  C53  1  0.50000000  0.44002366  0.63209299  1
  C  C54  1  0.50000000  0.43999507  0.75699501  1
  C  C55  1  0.50000000  0.44018690  0.88215106  1
  C  C56  1  0.50000000  0.48810872  0.00713156  1
  C  C57  1  0.50000000  0.48814001  0.13215406  1
  C  C58  1  0.50000000  0.48822224  0.25727220  1
  C  C59  1  0.50000000  0.48814007  0.38238821  1
  C  C60  1  0.50000000  0.48803418  0.50739042  1
  C  C61  1  0.50000000  0.48801297  0.63232827  1
  C  C62  1  0.50000000  0.48800661  0.75719586  1
  C  C63  1  0.50000000  0.48810357  0.88217457  1
  C  C64  1  0.50000000  0.51186033  0.06965709  1
  C  C65  1  0.50000000  0.51177839  0.19477230  1
  C  C66  1  0.50000000  0.51186008  0.31989049  1
  C  C67  1  0.50000000  0.51189182  0.44491383  1
  C  C68  1  0.50000000  0.51189591  0.56987220  1
  C  C69  1  0.50000000  0.51199220  0.69485281  1
  C  C70  1  0.50000000  0.51198715  0.81971933  1
  C  C71  1  0.50000000  0.51196523  0.94465524  1
  C  C72  1  0.50000000  0.55965646  0.06977818  1
  C  C73  1  0.50000000  0.55943626  0.19498178  1
  C  C74  1  0.50000000  0.55960826  0.32002051  1
  C  C75  1  0.50000000  0.55972912  0.44496264  1
  C  C76  1  0.50000000  0.55981256  0.56989675  1
  C  C77  1  0.50000000  0.56000370  0.69505557  1
  C  C78  1  0.50000000  0.55997640  0.81995578  1
  C  C79  1  0.50000000  0.55984248  0.94476226  1
  C  C80  1  0.50000000  0.58355731  0.00729889  1
  C  C81  1  0.50000000  0.58306855  0.13256269  1
  C  C82  1  0.50000000  0.58314783  0.25744925  1
  C  C83  1  0.50000000  0.58341851  0.38250249  1
  C  C84  1  0.50000000  0.58366088  0.50741934  1
  C  C85  1  0.50000000  0.58368438  0.63239474  1
  C  C86  1  0.50000000  0.58400461  0.75765571  1
  C  C87  1  0.50000000  0.58388535  0.88246538  1
  C  C88  1  0.50000000  0.63146479  0.00751338  1
  C  C89  1  0.50000000  0.63075118  0.13290927  1
  C  C90  1  0.50000000  0.63092798  0.25750499  1
  C  C91  1  0.50000000  0.63132274  0.38247666  1
  C  C92  1  0.50000000  0.63157083  0.50734219  1
  C  C93  1  0.50000000  0.63158264  0.63235620  1
  C  C94  1  0.50000000  0.63204461  0.75796964  1
  C  C95  1  0.50000000  0.63195368  0.88279001  1
  C  C96  1  0.50000000  0.65426712  0.07056426  1
  C  C97  1  0.50000000  0.65452445  0.19525801  1
  C  C98  1  0.50000000  0.65463722  0.31993382  1
  C  C99  1  0.50000000  0.65536229  0.44490189  1
  C  C100  1  0.50000000  0.65534494  0.56988024  1
  C  C101  1  0.50000000  0.65529059  0.69502307  1
  C  C102  1  0.50000000  0.65620360  0.82060338  1
  C  C103  1  0.50000000  0.65575708  0.94506407  1
  C  C104  1  0.50000000  0.70214649  0.07124036  1
  C  C105  1  0.50000000  0.70282146  0.19541818  1
  C  C106  1  0.50000000  0.70277110  0.31960699  1
  C  C107  1  0.50000000  0.70353923  0.44412724  1
  C  C108  1  0.50000000  0.70338340  0.56974506  1
  C  C109  1  0.50000000  0.70311072  0.69519351  1
  C  C110  1  0.50000000  0.70461629  0.82144907  1
  C  C111  1  0.50000000  0.70416185  0.94599094  1
  C  C112  1  0.50000000  0.72507245  0.00925395  1
  C  C113  1  0.50000000  0.72537985  0.13300930  1
  C  C114  1  0.50000000  0.72574605  0.25762446  1
  C  C115  1  0.50000000  0.72572856  0.38197030  1
  C  C116  1  0.50000000  0.72758493  0.50759435  1
  C  C117  1  0.50000000  0.72690352  0.63237068  1
  C  C118  1  0.50000000  0.72682565  0.75724527  1
  C  C119  1  0.50000000  0.72931715  0.88367488  1
  C  C120  1  0.50000000  0.77521872  0.50949948  1
  C  C121  1  0.50000000  0.77497322  0.63224892  1
  C  C122  1  0.50000000  0.77483445  0.75568003  1
  C  C123  1  0.50000000  0.77896790  0.88146963  1
  C  C124  1  0.50000000  0.79822931  0.56944403  1
  C  C125  1  0.50000000  0.79787519  0.69358667  1
  C  C126  1  0.50000000  0.79860025  0.81602074  1
  C  C127  1  0.50000000  0.81188173  0.93190401  1
  H  H128  1  0.50000000  0.15334454  0.53788423  1
  H  H129  1  0.50000000  0.16478705  0.63885663  1
  H  H130  1  0.50000000  0.16544457  0.75794008  1
  H  H131  1  0.50000000  0.16509827  0.88191067  1
  H  H132  1  0.50000000  0.83489631  0.57018441  1
  H  H133  1  0.50000000  0.83455626  0.69405467  1
  H  H134  1  0.50000000  0.83521815  0.81326945  1
  H  H135  1  0.50000000  0.84665445  0.91423060  1
  H  H136  1  0.50000000  0.19111283  0.46550488  1
  H  H137  1  0.50000000  0.20567947  0.98965271  1
  H  H138  1  0.50000000  0.23771987  0.07206555  1
  H  H139  1  0.50000000  0.23754960  0.19429885  1
  H  H140  1  0.50000000  0.23794594  0.31933552  1
  H  H141  1  0.50000000  0.23898808  0.43956202  1
  H  H142  1  0.50000000  0.76101027  0.01245542  1
  H  H143  1  0.50000000  0.76205349  0.13264896  1
  H  H144  1  0.50000000  0.76245516  0.25778399  1
  H  H145  1  0.50000000  0.76228087  0.38004990  1
  H  H146  1  0.50000000  0.79432887  0.46241224  1
  H  H147  1  0.50000000  0.80887353  0.98656976  1
