# generated using pymatgen
data_HC3
_symmetry_space_group_name_H-M   'P 1'
_cell_length_a   10.00000000
_cell_length_b   29.89204000
_cell_length_c   19.91578881
_cell_angle_alpha   90.00000000
_cell_angle_beta   90.00000000
_cell_angle_gamma   90.00000000
_symmetry_Int_Tables_number   1
_chemical_formula_structural   HC3
_chemical_formula_sum   'H32 C96'
_cell_volume   5953.23555802
_cell_formula_units_Z   32
loop_
 _symmetry_equiv_pos_site_id
 _symmetry_equiv_pos_as_xyz
  1  'x, y, z'
loop_
 _atom_site_type_symbol
 _atom_site_label
 _atom_site_symmetry_multiplicity
 _atom_site_fract_x
 _atom_site_fract_y
 _atom_site_fract_z
 _atom_site_occupancy
  C  C0  1  0.50000001  0.84377976  0.51922482  1
  C  C1  1  0.49999990  0.83842429  0.64057417  1
  C  C2  1  0.50000011  0.83637838  0.76353532  1
  C  C3  1  0.50000036  0.83520063  0.88705172  1
  C  C4  1  0.49999916  0.15280423  0.52287286  1
  C  C5  1  0.49999961  0.16042240  0.64358393  1
  C  C6  1  0.50000017  0.16468094  0.76483763  1
  C  C7  1  0.50000025  0.16674414  0.88786188  1
  C  C8  1  0.49999908  0.18005498  0.57911682  1
  C  C9  1  0.49999982  0.18617795  0.70224450  1
  C  C10  1  0.50000009  0.18896831  0.82496117  1
  C  C11  1  0.49999987  0.19121438  0.94691055  1
  C  C12  1  0.49999919  0.22925014  0.57675999  1
  C  C13  1  0.49999959  0.23472924  0.69918039  1
  C  C14  1  0.49999991  0.23710824  0.82227834  1
  C  C15  1  0.49999925  0.23806694  0.94455313  1
  C  C16  1  0.50000187  0.25157819  0.51572909  1
  C  C17  1  0.49999941  0.25659518  0.63545104  1
  C  C18  1  0.49999980  0.25991396  0.75874292  1
  C  C19  1  0.49999950  0.26150209  0.88312684  1
  C  C20  1  0.50000491  0.29762585  0.51185617  1
  C  C21  1  0.49999982  0.30514792  0.63129675  1
  C  C22  1  0.49999962  0.30809192  0.75509556  1
  C  C23  1  0.49999948  0.31007282  0.87927451  1
  C  C24  1  0.50000173  0.32761553  0.56729241  1
  C  C25  1  0.49999963  0.33090660  0.69198383  1
  C  C26  1  0.49999967  0.33286236  0.81600021  1
  C  C27  1  0.49999952  0.33489210  0.93796903  1
  C  C28  1  0.50000002  0.38193704  0.06385461  1
  C  C29  1  0.50000009  0.38034193  0.18767584  1
  C  C30  1  0.49999986  0.37928884  0.31188843  1
  C  C31  1  0.49999743  0.38187667  0.43654887  1
  C  C32  1  0.50000071  0.37712504  0.56365751  1
  C  C33  1  0.49999993  0.37936286  0.68919355  1
  C  C34  1  0.49999982  0.38065570  0.81443562  1
  C  C35  1  0.49999979  0.38139770  0.93887910  1
  C  C36  1  0.49999993  0.40476378  0.00309745  1
  C  C37  1  0.50000007  0.40390172  0.12681034  1
  C  C38  1  0.50000007  0.40253065  0.25019008  1
  C  C39  1  0.49999998  0.40262002  0.37308023  1
  C  C40  1  0.50000015  0.40219439  0.50008522  1
  C  C41  1  0.49999998  0.40258457  0.62497051  1
  C  C42  1  0.49999994  0.40396351  0.75104644  1
  C  C43  1  0.49999986  0.40475671  0.87649723  1
  C  C44  1  0.49999994  0.45308238  0.00320487  1
  C  C45  1  0.50000011  0.45249962  0.12718145  1
  C  C46  1  0.50000000  0.45160065  0.25055681  1
  C  C47  1  0.49999896  0.45030452  0.37317339  1
  C  C48  1  0.49999925  0.45147986  0.49997243  1
  C  C49  1  0.49999997  0.45219576  0.62480334  1
  C  C50  1  0.49999993  0.45214156  0.75077474  1
  C  C51  1  0.49999985  0.45255309  0.87622650  1
  C  C52  1  0.50000005  0.47529676  0.06462349  1
  C  C53  1  0.50000015  0.47492610  0.18892304  1
  C  C54  1  0.49999899  0.47415623  0.31260728  1
  C  C55  1  0.49999453  0.47129094  0.43631895  1
  C  C56  1  0.50000046  0.47705238  0.56325239  1
  C  C57  1  0.49999991  0.47615100  0.68864337  1
  C  C58  1  0.49999978  0.47608878  0.81364085  1
  C  C59  1  0.49999981  0.47633157  0.93847170  1
  C  C60  1  0.50000228  0.52632505  0.56624204  1
  C  C61  1  0.49999931  0.52456562  0.69072111  1
  C  C62  1  0.49999960  0.52397840  0.81449822  1
  C  C63  1  0.49999966  0.52282818  0.93672283  1
  C  C64  1  0.50000760  0.55550464  0.50990132  1
  C  C65  1  0.49999955  0.54959476  0.62963076  1
  C  C66  1  0.49999930  0.54839441  0.75319546  1
  C  C67  1  0.49999962  0.54727296  0.87727487  1
  C  C68  1  0.50000280  0.60131236  0.51239833  1
  C  C69  1  0.49999907  0.59815317  0.63252825  1
  C  C70  1  0.49999936  0.59666100  0.75557834  1
  C  C71  1  0.49999960  0.59572789  0.87956355  1
  C  C72  1  0.49999882  0.62437128  0.57301572  1
  C  C73  1  0.49999918  0.62154838  0.69522647  1
  C  C74  1  0.49999956  0.62019674  0.81854952  1
  C  C75  1  0.49999949  0.61953543  0.94068958  1
  C  C76  1  0.49999906  0.67269809  0.57353207  1
  C  C77  1  0.49999946  0.66996030  0.69684442  1
  C  C78  1  0.49999964  0.66824442  0.82046338  1
  C  C79  1  0.49999946  0.66574341  0.94249163  1
  C  C80  1  0.49999991  0.69793539  0.51374454  1
  C  C81  1  0.49999945  0.69547203  0.63586538  1
  C  C82  1  0.49999974  0.69300255  0.75900871  1
  C  C83  1  0.49999961  0.69131569  0.88323681  1
  C  C84  1  0.50000042  0.74431564  0.51480462  1
  C  C85  1  0.49999983  0.74345008  0.63680400  1
  C  C86  1  0.49999987  0.74117130  0.76043847  1
  C  C87  1  0.49999982  0.74011213  0.88507975  1
  C  C88  1  0.50000013  0.76821615  0.57538475  1
  C  C89  1  0.49999977  0.76593809  0.69993985  1
  C  C90  1  0.50000003  0.76429163  0.82346100  1
  C  C91  1  0.49999980  0.76430555  0.94577970  1
  C  C92  1  0.50000007  0.81750613  0.57652377  1
  C  C93  1  0.49999984  0.81438362  0.70118107  1
  C  C94  1  0.50000018  0.81253002  0.82444988  1
  C  C95  1  0.50000008  0.81123093  0.94664354  1
  H  H96  1  0.49999968  0.88030612  0.52401357  1
  H  H97  1  0.50000002  0.87510966  0.64266622  1
  H  H98  1  0.50000017  0.87308053  0.76471499  1
  H  H99  1  0.50000055  0.87186801  0.88718681  1
  H  H100  1  0.49999941  0.11637955  0.52940467  1
  H  H101  1  0.49999995  0.12387238  0.64814037  1
  H  H102  1  0.50000025  0.12800487  0.76654073  1
  H  H103  1  0.50000058  0.13007024  0.88844641  1
  H  H104  1  0.50000018  0.83025213  0.46823294  1
  H  H105  1  0.49999910  0.16529846  0.47132920  1
  H  H106  1  0.49999989  0.17414585  0.99563772  1
  H  H107  1  0.49999856  0.25610251  0.99227373  1
  H  H108  1  0.50000326  0.23298152  0.46838688  1
  H  H109  1  0.50001267  0.30769698  0.46032071  1
  H  H110  1  0.49999945  0.31712180  0.98554809  1
  H  H111  1  0.50000004  0.34537624  0.06533852  1
  H  H112  1  0.50000002  0.34361263  0.18680312  1
  H  H113  1  0.49999982  0.34255119  0.31167974  1
  H  H114  1  0.49998977  0.34641652  0.43114867  1
  H  H115  1  0.50000007  0.51187491  0.06700781  1
  H  H116  1  0.50000003  0.51163779  0.18996234  1
  H  H117  1  0.49999881  0.51089431  0.31326865  1
  H  H118  1  0.49998209  0.50664101  0.42996893  1
  H  H119  1  0.49999969  0.54085447  0.98414935  1
  H  H120  1  0.50002035  0.54478668  0.45875075  1
  H  H121  1  0.50000501  0.61912847  0.46453556  1
  H  H122  1  0.49999927  0.60179662  0.98863710  1
  H  H123  1  0.49999933  0.68220503  0.99151651  1
  H  H124  1  0.50000020  0.68116795  0.46502106  1
  H  H125  1  0.50000106  0.76231532  0.46701631  1
  H  H126  1  0.49999934  0.74657926  0.99378647  1
  H  H127  1  0.49999973  0.82882403  0.99493729  1
