# generated using pymatgen
data_HC4
_symmetry_space_group_name_H-M   'P 1'
_cell_length_a   10.00000000
_cell_length_b   21.36688000
_cell_length_c   19.75822489
_cell_angle_alpha   90.00000000
_cell_angle_beta   90.00000000
_cell_angle_gamma   90.00000000
_symmetry_Int_Tables_number   1
_chemical_formula_structural   HC4
_chemical_formula_sum   'H18 C72'
_cell_volume   4221.71620254
_cell_formula_units_Z   18
loop_
 _symmetry_equiv_pos_site_id
 _symmetry_equiv_pos_as_xyz
  1  'x, y, z'
loop_
 _atom_site_type_symbol
 _atom_site_label
 _atom_site_symmetry_multiplicity
 _atom_site_fract_x
 _atom_site_fract_y
 _atom_site_fract_z
 _atom_site_occupancy
  C  C0  1  0.50000000  0.28203854  0.00714790  1
  C  C1  1  0.50000000  0.28126587  0.13262954  1
  C  C2  1  0.50000000  0.28136410  0.25840599  1
  C  C3  1  0.50000000  0.28229103  0.38360240  1
  C  C4  1  0.50000000  0.28320082  0.50846231  1
  C  C5  1  0.50000000  0.28393055  0.63313726  1
  C  C6  1  0.50000000  0.28385178  0.75758641  1
  C  C7  1  0.50000000  0.28310439  0.88217051  1
  C  C8  1  0.50000000  0.31342360  0.07003615  1
  C  C9  1  0.50000000  0.31282647  0.19554394  1
  C  C10  1  0.50000000  0.31366132  0.32080807  1
  C  C11  1  0.50000000  0.31472313  0.44581091  1
  C  C12  1  0.50000000  0.31558904  0.57061453  1
  C  C13  1  0.50000000  0.31605905  0.69541395  1
  C  C14  1  0.50000000  0.31558618  0.82006774  1
  C  C15  1  0.50000000  0.31451114  0.94487394  1
  C  C16  1  0.50000000  0.38119371  0.07022379  1
  C  C17  1  0.50000000  0.38056543  0.19557596  1
  C  C18  1  0.50000000  0.38139348  0.32064087  1
  C  C19  1  0.50000000  0.38244733  0.44558538  1
  C  C20  1  0.50000000  0.38332980  0.57049969  1
  C  C21  1  0.50000000  0.38381621  0.69555462  1
  C  C22  1  0.50000000  0.38337072  0.82033735  1
  C  C23  1  0.50000000  0.38228352  0.94509549  1
  C  C24  1  0.50000000  0.41473756  0.00782179  1
  C  C25  1  0.50000000  0.41360191  0.13309827  1
  C  C26  1  0.50000000  0.41391819  0.25790135  1
  C  C27  1  0.50000000  0.41495927  0.38291165  1
  C  C28  1  0.50000000  0.41607568  0.50783730  1
  C  C29  1  0.50000000  0.41662864  0.63289734  1
  C  C30  1  0.50000000  0.41694918  0.75816486  1
  C  C31  1  0.50000000  0.41616500  0.88293118  1
  C  C32  1  0.50000000  0.48203681  0.00796969  1
  C  C33  1  0.50000000  0.48064164  0.13330964  1
  C  C34  1  0.50000000  0.48109661  0.25781308  1
  C  C35  1  0.50000000  0.48226449  0.38271400  1
  C  C36  1  0.50000000  0.48334217  0.50760318  1
  C  C37  1  0.50000000  0.48379712  0.63270700  1
  C  C38  1  0.50000000  0.48435801  0.75841177  1
  C  C39  1  0.50000000  0.48361711  0.88323146  1
  C  C40  1  0.50000000  0.51367557  0.07103154  1
  C  C41  1  0.50000000  0.51401170  0.19554486  1
  C  C42  1  0.50000000  0.51453142  0.32003646  1
  C  C43  1  0.50000000  0.51617950  0.44496585  1
  C  C44  1  0.50000000  0.51675777  0.57008149  1
  C  C45  1  0.50000000  0.51681824  0.69542553  1
  C  C46  1  0.50000000  0.51774087  0.82116035  1
  C  C47  1  0.50000000  0.51641737  0.94564530  1
  C  C48  1  0.50000000  0.58079853  0.07165369  1
  C  C49  1  0.50000000  0.58166970  0.19554496  1
  C  C50  1  0.50000000  0.58198270  0.31955900  1
  C  C51  1  0.50000000  0.58378422  0.44409762  1
  C  C52  1  0.50000000  0.58407146  0.56985506  1
  C  C53  1  0.50000000  0.58377734  0.69555419  1
  C  C54  1  0.50000000  0.58559706  0.82193888  1
  C  C55  1  0.50000000  0.58431619  0.94652013  1
  C  C56  1  0.50000000  0.61324613  0.00987034  1
  C  C57  1  0.50000000  0.61333779  0.13330988  1
  C  C58  1  0.50000000  0.61396404  0.25756757  1
  C  C59  1  0.50000000  0.61444115  0.38177156  1
  C  C60  1  0.50000000  0.61770193  0.50757231  1
  C  C61  1  0.50000000  0.61694850  0.63259660  1
  C  C62  1  0.50000000  0.61681111  0.75763260  1
  C  C63  1  0.50000000  0.61982692  0.88424618  1
  C  C64  1  0.50000000  0.68437841  0.50943758  1
  C  C65  1  0.50000000  0.68419881  0.63245333  1
  C  C66  1  0.50000000  0.68400052  0.75603481  1
  C  C67  1  0.50000000  0.68936446  0.88202301  1
  C  C68  1  0.50000000  0.71658686  0.56946366  1
  C  C69  1  0.50000000  0.71626559  0.69384403  1
  C  C70  1  0.50000000  0.71705041  0.81653907  1
  C  C71  1  0.50000000  0.73523348  0.93264714  1
  H  H72  1  0.50000000  0.23067184  0.00630981  1
  H  H73  1  0.50000000  0.22988016  0.13235557  1
  H  H74  1  0.50000000  0.23004803  0.25895000  1
  H  H75  1  0.50000000  0.23096896  0.38432377  1
  H  H76  1  0.50000000  0.23186931  0.50903902  1
  H  H77  1  0.50000000  0.23258883  0.63344421  1
  H  H78  1  0.50000000  0.23252619  0.75730140  1
  H  H79  1  0.50000000  0.23177303  0.88148159  1
  H  H80  1  0.50000000  0.76788765  0.57004838  1
  H  H81  1  0.50000000  0.76756752  0.69430145  1
  H  H82  1  0.50000000  0.76827418  0.81406191  1
  H  H83  1  0.50000000  0.78401214  0.91524737  1
  H  H84  1  0.50000000  0.66352388  0.01343878  1
  H  H85  1  0.50000000  0.66463455  0.13319309  1
  H  H86  1  0.50000000  0.66528846  0.25723090  1
  H  H87  1  0.50000000  0.66554724  0.37934993  1
  H  H88  1  0.50000000  0.71099170  0.46221731  1
  H  H89  1  0.50000000  0.73048617  0.98734868  1
