# generated using pymatgen
data_H5C32
_symmetry_space_group_name_H-M   'P 1'
_cell_length_a   10.00000000
_cell_length_b   29.89204000
_cell_length_c   19.76439154
_cell_angle_alpha   90.00000000
_cell_angle_beta   90.00000000
_cell_angle_gamma   90.00000000
_symmetry_Int_Tables_number   1
_chemical_formula_structural   H5C32
_chemical_formula_sum   'H20 C128'
_cell_volume   5907.97982470
_cell_formula_units_Z   4
loop_
 _symmetry_equiv_pos_site_id
 _symmetry_equiv_pos_as_xyz
  1  'x, y, z'
loop_
 _atom_site_type_symbol
 _atom_site_label
 _atom_site_symmetry_multiplicity
 _atom_site_fract_x
 _atom_site_fract_y
 _atom_site_fract_z
 _atom_site_occupancy
  C  C0  1  0.50000000  0.20144041  0.00662827  1
  C  C1  1  0.50000000  0.20118015  0.13173986  1
  C  C2  1  0.50000000  0.20104267  0.25697803  1
  C  C3  1  0.50000000  0.20110076  0.38224816  1
  C  C4  1  0.50000000  0.20131261  0.50738090  1
  C  C5  1  0.50000000  0.20155055  0.63227369  1
  C  C6  1  0.50000000  0.20170006  0.75699573  1
  C  C7  1  0.50000000  0.20166151  0.88173894  1
  C  C8  1  0.50000000  0.22406706  0.06923669  1
  C  C9  1  0.50000000  0.22385346  0.19438371  1
  C  C10  1  0.50000000  0.22381770  0.31958280  1
  C  C11  1  0.50000000  0.22399507  0.44475113  1
  C  C12  1  0.50000000  0.22428149  0.56975199  1
  C  C13  1  0.50000000  0.22450991  0.69457177  1
  C  C14  1  0.50000000  0.22454691  0.81935178  1
  C  C15  1  0.50000000  0.22437719  0.94422060  1
  C  C16  1  0.50000000  0.27242629  0.06916569  1
  C  C17  1  0.50000000  0.27224248  0.19433083  1
  C  C18  1  0.50000000  0.27222954  0.31950859  1
  C  C19  1  0.50000000  0.27241554  0.44463787  1
  C  C20  1  0.50000000  0.27271033  0.56962105  1
  C  C21  1  0.50000000  0.27293008  0.69444267  1
  C  C22  1  0.50000000  0.27293269  0.81923360  1
  C  C23  1  0.50000000  0.27273427  0.94412910  1
  C  C24  1  0.50000000  0.29623530  0.00666699  1
  C  C25  1  0.50000000  0.29594243  0.13172663  1
  C  C26  1  0.50000000  0.29586571  0.25689320  1
  C  C27  1  0.50000000  0.29598192  0.38202008  1
  C  C28  1  0.50000000  0.29627146  0.50704746  1
  C  C29  1  0.50000000  0.29658092  0.63195806  1
  C  C30  1  0.50000000  0.29670374  0.75679843  1
  C  C31  1  0.50000000  0.29654512  0.88166194  1
  C  C32  1  0.50000000  0.34416167  0.00648438  1
  C  C33  1  0.50000000  0.34382415  0.13155642  1
  C  C34  1  0.50000000  0.34375255  0.25676668  1
  C  C35  1  0.50000000  0.34391167  0.38195419  1
  C  C36  1  0.50000000  0.34424420  0.50696678  1
  C  C37  1  0.50000000  0.34458047  0.63183981  1
  C  C38  1  0.50000000  0.34470057  0.75663360  1
  C  C39  1  0.50000000  0.34451958  0.88146912  1
  C  C40  1  0.50000000  0.36770046  0.06902631  1
  C  C41  1  0.50000000  0.36740664  0.19411489  1
  C  C42  1  0.50000000  0.36750141  0.31931048  1
  C  C43  1  0.50000000  0.36785284  0.44439715  1
  C  C44  1  0.50000000  0.36826740  0.56931814  1
  C  C45  1  0.50000000  0.36855166  0.69416369  1
  C  C46  1  0.50000000  0.36851980  0.81901029  1
  C  C47  1  0.50000000  0.36813065  0.94398106  1
  C  C48  1  0.50000000  0.41550365  0.06883140  1
  C  C49  1  0.50000000  0.41514473  0.19393684  1
  C  C50  1  0.50000000  0.41527393  0.31921109  1
  C  C51  1  0.50000000  0.41572235  0.44439562  1
  C  C52  1  0.50000000  0.41621448  0.56926485  1
  C  C53  1  0.50000000  0.41653231  0.69397192  1
  C  C54  1  0.50000000  0.41647898  0.81875704  1
  C  C55  1  0.50000000  0.41598809  0.94375227  1
  C  C56  1  0.50000000  0.43950810  0.00635429  1
  C  C57  1  0.50000000  0.43899849  0.13140467  1
  C  C58  1  0.50000000  0.43873677  0.25646011  1
  C  C59  1  0.50000000  0.43918926  0.38171726  1
  C  C60  1  0.50000000  0.43988411  0.50677094  1
  C  C61  1  0.50000000  0.44040536  0.63151971  1
  C  C62  1  0.50000000  0.44055110  0.75626488  1
  C  C63  1  0.50000000  0.44011596  0.88129133  1
  C  C64  1  0.50000000  0.48732453  0.00625384  1
  C  C65  1  0.50000000  0.48673834  0.13123955  1
  C  C66  1  0.50000000  0.48638769  0.25624272  1
  C  C67  1  0.50000000  0.48695921  0.38163972  1
  C  C68  1  0.50000000  0.48781050  0.50677303  1
  C  C69  1  0.50000000  0.48848359  0.63137604  1
  C  C70  1  0.50000000  0.48858002  0.75604862  1
  C  C71  1  0.50000000  0.48802881  0.88115340  1
  C  C72  1  0.50000000  0.51072433  0.06883759  1
  C  C73  1  0.50000000  0.51017789  0.19381232  1
  C  C74  1  0.50000000  0.51004754  0.31863377  1
  C  C75  1  0.50000000  0.51111246  0.44410250  1
  C  C76  1  0.50000000  0.51228031  0.56886061  1
  C  C77  1  0.50000000  0.51272451  0.69353631  1
  C  C78  1  0.50000000  0.51219005  0.81870367  1
  C  C79  1  0.50000000  0.51151969  0.94385368  1
  C  C80  1  0.50000000  0.55858355  0.06896743  1
  C  C81  1  0.50000000  0.55791518  0.19379762  1
  C  C82  1  0.50000000  0.55761300  0.31817803  1
  C  C83  1  0.50000000  0.55899396  0.44382356  1
  C  C84  1  0.50000000  0.56044047  0.56847032  1
  C  C85  1  0.50000000  0.56097875  0.69307781  1
  C  C86  1  0.50000000  0.56016061  0.81865325  1
  C  C87  1  0.50000000  0.55936527  0.94398685  1
  C  C88  1  0.50000000  0.58278437  0.00667107  1
  C  C89  1  0.50000000  0.58174444  0.13152061  1
  C  C90  1  0.50000000  0.58146116  0.25596698  1
  C  C91  1  0.50000000  0.58108418  0.38037983  1
  C  C92  1  0.50000000  0.58387087  0.50606207  1
  C  C93  1  0.50000000  0.58520969  0.63049099  1
  C  C94  1  0.50000000  0.58440447  0.75610435  1
  C  C95  1  0.50000000  0.58346985  0.88143881  1
  C  C96  1  0.50000000  0.63081930  0.00778511  1
  C  C97  1  0.50000000  0.62980317  0.13196390  1
  C  C98  1  0.50000000  0.62971635  0.25575126  1
  C  C99  1  0.50000000  0.62866193  0.37933679  1
  C  C100  1  0.50000000  0.63239651  0.50493151  1
  C  C101  1  0.50000000  0.63386560  0.62972070  1
  C  C102  1  0.50000000  0.63238179  0.75614232  1
  C  C103  1  0.50000000  0.63135928  0.88182272  1
  C  C104  1  0.50000000  0.65287951  0.06976134  1
  C  C105  1  0.50000000  0.65277331  0.19374450  1
  C  C106  1  0.50000000  0.65220456  0.31797158  1
  C  C107  1  0.50000000  0.65177727  0.44080654  1
  C  C108  1  0.50000000  0.65852948  0.56731880  1
  C  C109  1  0.50000000  0.65676357  0.69393658  1
  C  C110  1  0.50000000  0.65571484  0.81966522  1
  C  C111  1  0.50000000  0.65509084  0.94423370  1
  C  C112  1  0.50000000  0.70808190  0.56935206  1
  C  C113  1  0.50000000  0.70480641  0.69580257  1
  C  C114  1  0.50000000  0.70349413  0.82097987  1
  C  C115  1  0.50000000  0.70197383  0.94353534  1
  C  C116  1  0.50000000  0.73824608  0.51336250  1
  C  C117  1  0.50000000  0.72993921  0.63412841  1
  C  C118  1  0.50000000  0.72747568  0.75903579  1
  C  C119  1  0.50000000  0.72683474  0.88445130  1
  C  C120  1  0.50000000  0.78493041  0.51794361  1
  C  C121  1  0.50000000  0.77838624  0.63846469  1
  C  C122  1  0.50000000  0.77578342  0.76185622  1
  C  C123  1  0.50000000  0.77615259  0.88685888  1
  C  C124  1  0.50000000  0.80557957  0.58001386  1
  C  C125  1  0.50000000  0.79981650  0.70140575  1
  C  C126  1  0.50000000  0.79850487  0.82385768  1
  C  C127  1  0.50000000  0.80111969  0.94580340  1
  H  H128  1  0.50000000  0.16476083  0.00632396  1
  H  H129  1  0.50000000  0.16448547  0.13158160  1
  H  H130  1  0.50000000  0.16433402  0.25700086  1
  H  H131  1  0.50000000  0.16438285  0.38250799  1
  H  H132  1  0.50000000  0.16459686  0.50773195  1
  H  H133  1  0.50000000  0.16484225  0.63260395  1
  H  H134  1  0.50000000  0.16500643  0.75713546  1
  H  H135  1  0.50000000  0.16497943  0.88167629  1
  H  H136  1  0.50000000  0.84202751  0.58557392  1
  H  H137  1  0.50000000  0.83648645  0.70271905  1
  H  H138  1  0.50000000  0.83517936  0.82306136  1
  H  H139  1  0.50000000  0.83770745  0.94240687  1
  H  H140  1  0.50000000  0.68940009  0.07233899  1
  H  H141  1  0.50000000  0.68946101  0.19387726  1
  H  H142  1  0.50000000  0.68886723  0.31852150  1
  H  H143  1  0.50000000  0.68721110  0.43395547  1
  H  H144  1  0.50000000  0.72001657  0.99142043  1
  H  H145  1  0.50000000  0.72820673  0.46116886  1
  H  H146  1  0.50000000  0.80432859  0.47083661  1
  H  H147  1  0.50000000  0.78664998  0.99655567  1
