# generated using pymatgen
data_HC4
_symmetry_space_group_name_H-M   'P 1'
_cell_length_a   10.00000000
_cell_length_b   29.89204000
_cell_length_c   19.82144467
_cell_angle_alpha   90.00000000
_cell_angle_beta   90.00000000
_cell_angle_gamma   90.00000000
_symmetry_Int_Tables_number   1
_chemical_formula_structural   HC4
_chemical_formula_sum   'H26 C104'
_cell_volume   5925.03416941
_cell_formula_units_Z   26
loop_
 _symmetry_equiv_pos_site_id
 _symmetry_equiv_pos_as_xyz
  1  'x, y, z'
loop_
 _atom_site_type_symbol
 _atom_site_label
 _atom_site_symmetry_multiplicity
 _atom_site_fract_x
 _atom_site_fract_y
 _atom_site_fract_z
 _atom_site_occupancy
  C  C0  1  0.49999983  0.19108752  0.51905168  1
  C  C1  1  0.49999988  0.19702581  0.64099754  1
  C  C2  1  0.50000006  0.20025989  0.76331487  1
  C  C3  1  0.50000015  0.20117651  0.88711007  1
  C  C4  1  0.49999989  0.21736629  0.57665491  1
  C  C5  1  0.49999996  0.22216548  0.70070869  1
  C  C6  1  0.50000011  0.22399914  0.82432212  1
  C  C7  1  0.50000005  0.22519308  0.94685554  1
  C  C8  1  0.49999998  0.26647285  0.57553168  1
  C  C9  1  0.49999996  0.27074880  0.69880241  1
  C  C10  1  0.50000002  0.27217277  0.82280181  1
  C  C11  1  0.49999991  0.27211445  0.94564723  1
  C  C12  1  0.50000023  0.28925471  0.51461286  1
  C  C13  1  0.49999995  0.29312535  0.63512758  1
  C  C14  1  0.49999999  0.29536570  0.75932872  1
  C  C15  1  0.49999996  0.29620881  0.88448006  1
  C  C16  1  0.50000042  0.33526939  0.51167142  1
  C  C17  1  0.49999997  0.34158190  0.63205908  1
  C  C18  1  0.49999996  0.34359016  0.75665871  1
  C  C19  1  0.49999997  0.34499193  0.88150736  1
  C  C20  1  0.50000012  0.36452917  0.56820656  1
  C  C21  1  0.49999995  0.36667998  0.69361718  1
  C  C22  1  0.49999996  0.36815967  0.81814499  1
  C  C23  1  0.50000000  0.36984233  0.94060626  1
  C  C24  1  0.50000000  0.41787120  0.06751012  1
  C  C25  1  0.50000002  0.41760742  0.19193739  1
  C  C26  1  0.49999994  0.41879614  0.31677032  1
  C  C27  1  0.49999972  0.42050230  0.43932692  1
  C  C28  1  0.50000000  0.41383289  0.56592986  1
  C  C29  1  0.49999998  0.41489914  0.69177376  1
  C  C30  1  0.49999997  0.41602091  0.81694789  1
  C  C31  1  0.50000001  0.41650726  0.94158528  1
  C  C32  1  0.50000001  0.44016471  0.00569841  1
  C  C33  1  0.50000001  0.44055402  0.13010051  1
  C  C34  1  0.50000001  0.44059312  0.25402549  1
  C  C35  1  0.49999993  0.44300408  0.37759937  1
  C  C36  1  0.49999993  0.43979601  0.50335566  1
  C  C37  1  0.49999999  0.43842754  0.62806984  1
  C  C38  1  0.49999998  0.43957544  0.75360434  1
  C  C39  1  0.50000000  0.44024885  0.87912137  1
  C  C40  1  0.50000000  0.48816015  0.00449254  1
  C  C41  1  0.50000001  0.48865065  0.12958113  1
  C  C42  1  0.50000003  0.48885883  0.25392323  1
  C  C43  1  0.50000004  0.49048031  0.37849088  1
  C  C44  1  0.50000002  0.48844318  0.50444321  1
  C  C45  1  0.49999999  0.48732869  0.62864227  1
  C  C46  1  0.49999999  0.48773207  0.75350794  1
  C  C47  1  0.50000000  0.48810271  0.87886696  1
  C  C48  1  0.50000000  0.51183402  0.06709465  1
  C  C49  1  0.50000001  0.51232626  0.19186291  1
  C  C50  1  0.50000004  0.51298451  0.31571249  1
  C  C51  1  0.50000002  0.51278915  0.44198983  1
  C  C52  1  0.50000002  0.51217197  0.56667097  1
  C  C53  1  0.49999999  0.51171077  0.69079626  1
  C  C54  1  0.49999999  0.51166507  0.81620362  1
  C  C55  1  0.50000000  0.51169762  0.94177676  1
  C  C56  1  0.50000000  0.55971613  0.06716150  1
  C  C57  1  0.50000000  0.56015476  0.19191700  1
  C  C58  1  0.50000002  0.56043530  0.31581852  1
  C  C59  1  0.50000000  0.56071872  0.44208352  1
  C  C60  1  0.50000000  0.56068691  0.56670726  1
  C  C61  1  0.49999999  0.56039437  0.69091120  1
  C  C62  1  0.50000000  0.55976328  0.81636669  1
  C  C63  1  0.50000000  0.55950003  0.94186593  1
  C  C64  1  0.49999999  0.58314229  0.00459216  1
  C  C65  1  0.49999999  0.58333114  0.12944191  1
  C  C66  1  0.50000000  0.58412641  0.25379236  1
  C  C67  1  0.50000001  0.58314065  0.37862565  1
  C  C68  1  0.49999999  0.58486694  0.50467802  1
  C  C69  1  0.49999999  0.58513147  0.62887588  1
  C  C70  1  0.50000000  0.58392739  0.75390944  1
  C  C71  1  0.50000001  0.58313772  0.87913519  1
  C  C72  1  0.50000000  0.63109200  0.00576866  1
  C  C73  1  0.49999998  0.63140731  0.12983499  1
  C  C74  1  0.49999998  0.63241969  0.25379741  1
  C  C75  1  0.49999999  0.63074757  0.37777566  1
  C  C76  1  0.49999997  0.63352539  0.50375175  1
  C  C77  1  0.49999998  0.63400986  0.62844203  1
  C  C78  1  0.50000002  0.63207089  0.75447642  1
  C  C79  1  0.50000003  0.63100164  0.87981005  1
  C  C80  1  0.49999998  0.65376992  0.06720133  1
  C  C81  1  0.49999997  0.65488368  0.19130373  1
  C  C82  1  0.49999998  0.65457743  0.31646980  1
  C  C83  1  0.49999997  0.65323458  0.43976681  1
  C  C84  1  0.49999997  0.65914405  0.56655671  1
  C  C85  1  0.50000000  0.65668202  0.69277872  1
  C  C86  1  0.50000004  0.65534686  0.81800886  1
  C  C87  1  0.50000004  0.65473966  0.94206289  1
  C  C88  1  0.49999997  0.70876357  0.56947396  1
  C  C89  1  0.50000000  0.70481151  0.69539876  1
  C  C90  1  0.50000004  0.70311852  0.81990728  1
  C  C91  1  0.50000008  0.70151486  0.94179221  1
  C  C92  1  0.49999994  0.73927650  0.51415749  1
  C  C93  1  0.49999997  0.73026970  0.63432862  1
  C  C94  1  0.50000003  0.72735046  0.75862331  1
  C  C95  1  0.50000006  0.72642291  0.88326089  1
  C  C96  1  0.49999990  0.78593771  0.51935428  1
  C  C97  1  0.49999995  0.77867449  0.63935961  1
  C  C98  1  0.50000003  0.77567499  0.76229557  1
  C  C99  1  0.50000007  0.77569076  0.88681738  1
  C  C100  1  0.49999991  0.80620827  0.58153139  1
  C  C101  1  0.49999997  0.79987291  0.70229113  1
  C  C102  1  0.50000005  0.79827412  0.82427504  1
  C  C103  1  0.50000011  0.80031416  0.94603505  1
  H  H104  1  0.49999974  0.15455990  0.52390602  1
  H  H105  1  0.49999984  0.16039791  0.64432615  1
  H  H106  1  0.50000007  0.16358375  0.76428179  1
  H  H107  1  0.50000026  0.16448485  0.88725074  1
  H  H108  1  0.49999990  0.84261252  0.58761086  1
  H  H109  1  0.49999995  0.83652252  0.70421616  1
  H  H110  1  0.50000006  0.83497894  0.82403102  1
  H  H111  1  0.50000013  0.83694713  0.94300915  1
  H  H112  1  0.49999984  0.20453584  0.46779433  1
  H  H113  1  0.50000008  0.20757284  0.99534429  1
  H  H114  1  0.49999979  0.28956124  0.99411390  1
  H  H115  1  0.50000037  0.27076153  0.46700580  1
  H  H116  1  0.50000101  0.34604792  0.46021396  1
  H  H117  1  0.50000004  0.35193867  0.98840687  1
  H  H118  1  0.50000000  0.38132309  0.06984410  1
  H  H119  1  0.50000001  0.38092284  0.19203192  1
  H  H120  1  0.49999994  0.38211292  0.31867857  1
  H  H121  1  0.49999919  0.38523780  0.43163648  1
  H  H122  1  0.49999995  0.69028574  0.06905208  1
  H  H123  1  0.49999997  0.69157450  0.19046413  1
  H  H124  1  0.49999997  0.69128745  0.31784241  1
  H  H125  1  0.49999996  0.68870564  0.43326649  1
  H  H126  1  0.50000011  0.71937846  0.98962709  1
  H  H127  1  0.49999996  0.72919209  0.46217497  1
  H  H128  1  0.49999987  0.80584542  0.47292848  1
  H  H129  1  0.50000012  0.78570168  0.99661046  1
